MODEL 1
REMARK VINA RESULT:    -9.427      0.000      0.000
REMARK INTER + INTRA:          -9.703
REMARK INTER:                  -9.703
REMARK INTRA:                   0.000
REMARK UNBOUND:                 0.000
REMARK  1 active torsions:
REMARK  status: ('A' for Active; 'I' for Inactive)
REMARK    1  A    between atoms: O_1  and  C_10 
ROOT
HETATM    1  O   UNL     1     -18.101  24.751 -19.980  1.00  0.00    -0.293 OA
HETATM    2  C   UNL     1     -13.430  22.963 -14.038  1.00  0.00     0.001 C 
HETATM    3  C   UNL     1     -13.828  21.743 -13.201  1.00  0.00    -0.014 C 
HETATM    4  C   UNL     1     -13.888  22.846 -15.508  1.00  0.00    -0.004 C 
HETATM    5  C   UNL     1     -15.450  22.726 -15.535  1.00  0.00     0.002 C 
HETATM    6  C   UNL     1     -16.030  22.639 -17.002  1.00  0.00    -0.016 C 
HETATM    7  C   UNL     1     -15.374  21.682 -13.156  1.00  0.00     0.012 C 
HETATM    8  C   UNL     1     -15.973  21.604 -14.581  1.00  0.00     0.007 C 
HETATM    9  C   UNL     1     -13.122  22.049 -11.860  1.00  0.00     0.126 C 
HETATM   10  C   UNL     1     -11.951  23.168 -13.741  1.00  0.00     0.008 C 
HETATM   11  C   UNL     1     -13.447  24.080 -16.314  1.00  0.00     0.010 C 
HETATM   12  C   UNL     1     -11.798  22.730 -12.273  1.00  0.00     0.033 C 
HETATM   13  C   UNL     1     -15.389  23.742 -17.860  1.00  0.00    -0.068 C 
HETATM   14  C   UNL     1     -13.899  23.970 -17.767  1.00  0.00     0.035 C 
HETATM   15  C   UNL     1     -13.263  20.389 -13.736  1.00  0.00     0.018 C 
HETATM   16  C   UNL     1     -17.580  22.840 -16.944  1.00  0.00     0.022 C 
HETATM   17  C   UNL     1     -15.716  21.272 -17.664  1.00  0.00     0.020 C 
HETATM   18  C   UNL     1     -18.216  23.042 -18.322  1.00  0.00     0.084 C 
HETATM   19  C   UNL     1     -16.074  24.374 -18.831  1.00  0.00     0.053 C 
HETATM   20  C   UNL     1     -17.498  24.109 -19.080  1.00  0.00     0.149 C 
ENDROOT
BRANCH   9  21
HETATM   21  O   UNL     1     -13.873  22.940 -11.072  1.00  0.00    -0.395 OA
HETATM   22  H   UNL     1     -14.746  23.061 -11.529  1.00  0.00     0.210 HD
ENDBRANCH   9  21
TORSDOF 1
ENDMDL
