MODEL 1
REMARK VINA RESULT:    -9.427      0.000      0.000
REMARK INTER + INTRA:          -9.703
REMARK INTER:                  -9.703
REMARK INTRA:                   0.000
REMARK UNBOUND:                 0.000
REMARK  1 active torsions:
REMARK  status: ('A' for Active; 'I' for Inactive)
REMARK    1  A    between atoms: O_1  and  C_10 
ROOT
HETATM    1  O   UNL     1     -18.101  24.751 -19.980  1.00  0.00    -0.293 OA
HETATM    2  C   UNL     1     -13.430  22.963 -14.038  1.00  0.00     0.001 C 
HETATM    3  C   UNL     1     -13.828  21.743 -13.201  1.00  0.00    -0.014 C 
HETATM    4  C   UNL     1     -13.888  22.846 -15.508  1.00  0.00    -0.004 C 
HETATM    5  C   UNL     1     -15.450  22.726 -15.535  1.00  0.00     0.002 C 
HETATM    6  C   UNL     1     -16.030  22.639 -17.002  1.00  0.00    -0.016 C 
HETATM    7  C   UNL     1     -15.374  21.682 -13.156  1.00  0.00     0.012 C 
HETATM    8  C   UNL     1     -15.973  21.604 -14.581  1.00  0.00     0.007 C 
HETATM    9  C   UNL     1     -13.122  22.049 -11.860  1.00  0.00     0.126 C 
HETATM   10  C   UNL     1     -11.951  23.168 -13.741  1.00  0.00     0.008 C 
HETATM   11  C   UNL     1     -13.447  24.080 -16.314  1.00  0.00     0.010 C 
HETATM   12  C   UNL     1     -11.798  22.730 -12.273  1.00  0.00     0.033 C 
HETATM   13  C   UNL     1     -15.389  23.742 -17.860  1.00  0.00    -0.068 C 
HETATM   14  C   UNL     1     -13.899  23.970 -17.767  1.00  0.00     0.035 C 
HETATM   15  C   UNL     1     -13.263  20.389 -13.736  1.00  0.00     0.018 C 
HETATM   16  C   UNL     1     -17.580  22.840 -16.944  1.00  0.00     0.022 C 
HETATM   17  C   UNL     1     -15.716  21.272 -17.664  1.00  0.00     0.020 C 
HETATM   18  C   UNL     1     -18.216  23.042 -18.322  1.00  0.00     0.084 C 
HETATM   19  C   UNL     1     -16.074  24.374 -18.831  1.00  0.00     0.053 C 
HETATM   20  C   UNL     1     -17.498  24.109 -19.080  1.00  0.00     0.149 C 
ENDROOT
BRANCH   9  21
HETATM   21  O   UNL     1     -13.873  22.940 -11.072  1.00  0.00    -0.395 OA
HETATM   22  H   UNL     1     -14.746  23.061 -11.529  1.00  0.00     0.210 HD
ENDBRANCH   9  21
TORSDOF 1
ENDMDL
MODEL 2
REMARK VINA RESULT:    -8.401      3.157      5.458
REMARK INTER + INTRA:          -8.646
REMARK INTER:                  -8.646
REMARK INTRA:                   0.000
REMARK UNBOUND:                 0.000
REMARK  1 active torsions:
REMARK  status: ('A' for Active; 'I' for Inactive)
REMARK    1  A    between atoms: O_1  and  C_10 
ROOT
HETATM    1  O   UNL     1     -20.038  27.261 -24.024  1.00  0.00    -0.293 OA
HETATM    2  C   UNL     1     -16.826  23.430 -18.079  1.00  0.00     0.001 C 
HETATM    3  C   UNL     1     -17.374  22.026 -17.798  1.00  0.00    -0.014 C 
HETATM    4  C   UNL     1     -16.926  23.815 -19.572  1.00  0.00    -0.004 C 
HETATM    5  C   UNL     1     -18.435  23.787 -19.993  1.00  0.00     0.002 C 
HETATM    6  C   UNL     1     -18.656  24.205 -21.500  1.00  0.00    -0.016 C 
HETATM    7  C   UNL     1     -18.885  22.031 -18.130  1.00  0.00     0.012 C 
HETATM    8  C   UNL     1     -19.134  22.444 -19.600  1.00  0.00     0.007 C 
HETATM    9  C   UNL     1     -17.007  21.850 -16.306  1.00  0.00     0.126 C 
HETATM   10  C   UNL     1     -15.463  23.455 -17.402  1.00  0.00     0.008 C 
HETATM   11  C   UNL     1     -16.346  25.219 -19.811  1.00  0.00     0.010 C 
HETATM   12  C   UNL     1     -15.643  22.562 -16.162  1.00  0.00     0.033 C 
HETATM   13  C   UNL     1     -17.865  25.492 -21.784  1.00  0.00    -0.068 C 
HETATM   14  C   UNL     1     -16.444  25.604 -21.284  1.00  0.00     0.035 C 
HETATM   15  C   UNL     1     -16.661  20.891 -18.598  1.00  0.00     0.018 C 
HETATM   16  C   UNL     1     -20.182  24.452 -21.737  1.00  0.00     0.022 C 
HETATM   17  C   UNL     1     -18.159  23.109 -22.479  1.00  0.00     0.020 C 
HETATM   18  C   UNL     1     -20.486  25.117 -23.082  1.00  0.00     0.084 C 
HETATM   19  C   UNL     1     -18.324  26.435 -22.627  1.00  0.00     0.053 C 
HETATM   20  C   UNL     1     -19.642  26.335 -23.268  1.00  0.00     0.149 C 
ENDROOT
BRANCH   9  21
HETATM   21  O   UNL     1     -17.945  22.477 -15.466  1.00  0.00    -0.395 OA
HETATM   22  H   UNL     1     -17.710  23.441 -15.442  1.00  0.00     0.210 HD
ENDBRANCH   9  21
TORSDOF 1
ENDMDL
MODEL 3
REMARK VINA RESULT:    -7.350      1.079      6.491
REMARK INTER + INTRA:          -7.565
REMARK INTER:                  -7.565
REMARK INTRA:                   0.000
REMARK UNBOUND:                 0.000
REMARK  1 active torsions:
REMARK  status: ('A' for Active; 'I' for Inactive)
REMARK    1  A    between atoms: O_1  and  C_10 
ROOT
HETATM    1  O   UNL     1     -11.949  23.279 -10.211  1.00  0.00    -0.293 OA
HETATM    2  C   UNL     1     -16.829  22.478 -16.200  1.00  0.00     0.001 C 
HETATM    3  C   UNL     1     -16.202  22.502 -17.599  1.00  0.00    -0.014 C 
HETATM    4  C   UNL     1     -15.866  21.920 -15.130  1.00  0.00    -0.004 C 
HETATM    5  C   UNL     1     -14.595  22.836 -15.078  1.00  0.00     0.002 C 
HETATM    6  C   UNL     1     -13.555  22.375 -13.982  1.00  0.00    -0.016 C 
HETATM    7  C   UNL     1     -15.002  23.478 -17.564  1.00  0.00     0.012 C 
HETATM    8  C   UNL     1     -13.967  23.056 -16.493  1.00  0.00     0.007 C 
HETATM    9  C   UNL     1     -17.406  22.936 -18.465  1.00  0.00     0.126 C 
HETATM   10  C   UNL     1     -18.181  21.807 -16.396  1.00  0.00     0.008 C 
HETATM   11  C   UNL     1     -16.544  21.894 -13.749  1.00  0.00     0.010 C 
HETATM   12  C   UNL     1     -18.621  22.249 -17.803  1.00  0.00     0.033 C 
HETATM   13  C   UNL     1     -14.299  22.120 -12.661  1.00  0.00    -0.068 C 
HETATM   14  C   UNL     1     -15.596  21.345 -12.688  1.00  0.00     0.035 C 
HETATM   15  C   UNL     1     -15.730  21.104 -18.110  1.00  0.00     0.018 C 
HETATM   16  C   UNL     1     -12.493  23.506 -13.787  1.00  0.00     0.022 C 
HETATM   17  C   UNL     1     -12.835  21.063 -14.389  1.00  0.00     0.020 C 
HETATM   18  C   UNL     1     -11.593  23.288 -12.568  1.00  0.00     0.084 C 
HETATM   19  C   UNL     1     -13.738  22.390 -11.468  1.00  0.00     0.053 C 
HETATM   20  C   UNL     1     -12.415  23.018 -11.351  1.00  0.00     0.149 C 
ENDROOT
BRANCH   9  21
HETATM   21  O   UNL     1     -17.590  24.331 -18.432  1.00  0.00    -0.395 OA
HETATM   22  H   UNL     1     -17.402  24.667 -19.347  1.00  0.00     0.210 HD
ENDBRANCH   9  21
TORSDOF 1
ENDMDL
MODEL 4
REMARK VINA RESULT:    -7.158      4.337      8.934
REMARK INTER + INTRA:          -7.367
REMARK INTER:                  -7.367
REMARK INTRA:                   0.000
REMARK UNBOUND:                 0.000
REMARK  1 active torsions:
REMARK  status: ('A' for Active; 'I' for Inactive)
REMARK    1  A    between atoms: O_1  and  C_10 
ROOT
HETATM    1  O   UNL     1     -16.664  21.341 -16.877  1.00  0.00    -0.293 OA
HETATM    2  C   UNL     1     -17.171  26.010 -23.063  1.00  0.00     0.001 C 
HETATM    3  C   UNL     1     -18.504  25.996 -23.820  1.00  0.00    -0.014 C 
HETATM    4  C   UNL     1     -17.342  25.698 -21.560  1.00  0.00    -0.004 C 
HETATM    5  C   UNL     1     -17.969  24.269 -21.416  1.00  0.00     0.002 C 
HETATM    6  C   UNL     1     -18.152  23.832 -19.909  1.00  0.00    -0.016 C 
HETATM    7  C   UNL     1     -19.074  24.560 -23.751  1.00  0.00     0.012 C 
HETATM    8  C   UNL     1     -19.258  24.099 -22.285  1.00  0.00     0.007 C 
HETATM    9  C   UNL     1     -18.065  26.487 -25.218  1.00  0.00     0.126 C 
HETATM   10  C   UNL     1     -16.509  27.318 -23.473  1.00  0.00     0.008 C 
HETATM   11  C   UNL     1     -15.985  25.746 -20.837  1.00  0.00     0.010 C 
HETATM   12  C   UNL     1     -16.961  27.528 -24.929  1.00  0.00     0.033 C 
HETATM   13  C   UNL     1     -16.849  24.114 -19.144  1.00  0.00    -0.068 C 
HETATM   14  C   UNL     1     -16.148  25.436 -19.352  1.00  0.00     0.035 C 
HETATM   15  C   UNL     1     -19.560  27.009 -23.273  1.00  0.00     0.018 C 
HETATM   16  C   UNL     1     -18.478  22.303 -19.864  1.00  0.00     0.022 C 
HETATM   17  C   UNL     1     -19.296  24.619 -19.217  1.00  0.00     0.020 C 
HETATM   18  C   UNL     1     -18.414  21.712 -18.453  1.00  0.00     0.084 C 
HETATM   19  C   UNL     1     -16.421  23.312 -18.152  1.00  0.00     0.053 C 
HETATM   20  C   UNL     1     -17.124  22.073 -17.791  1.00  0.00     0.149 C 
ENDROOT
BRANCH   9  21
HETATM   21  O   UNL     1     -17.521  25.440 -25.985  1.00  0.00    -0.395 OA
HETATM   22  H   UNL     1     -17.579  24.618 -25.431  1.00  0.00     0.210 HD
ENDBRANCH   9  21
TORSDOF 1
ENDMDL
MODEL 5
REMARK VINA RESULT:    -6.559      4.857      7.784
REMARK INTER + INTRA:          -6.751
REMARK INTER:                  -6.751
REMARK INTRA:                   0.000
REMARK UNBOUND:                 0.000
REMARK  1 active torsions:
REMARK  status: ('A' for Active; 'I' for Inactive)
REMARK    1  A    between atoms: O_1  and  C_10 
ROOT
HETATM    1  O   UNL     1     -17.469  27.159 -26.812  1.00  0.00    -0.293 OA
HETATM    2  C   UNL     1     -18.366  23.022 -20.299  1.00  0.00     0.001 C 
HETATM    3  C   UNL     1     -17.770  23.624 -19.022  1.00  0.00    -0.014 C 
HETATM    4  C   UNL     1     -18.806  24.102 -21.312  1.00  0.00    -0.004 C 
HETATM    5  C   UNL     1     -17.551  24.949 -21.713  1.00  0.00     0.002 C 
HETATM    6  C   UNL     1     -17.884  26.065 -22.780  1.00  0.00    -0.016 C 
HETATM    7  C   UNL     1     -16.481  24.384 -19.412  1.00  0.00     0.012 C 
HETATM    8  C   UNL     1     -16.773  25.481 -20.464  1.00  0.00     0.007 C 
HETATM    9  C   UNL     1     -17.577  22.360 -18.152  1.00  0.00     0.126 C 
HETATM   10  C   UNL     1     -19.393  22.011 -19.807  1.00  0.00     0.008 C 
HETATM   11  C   UNL     1     -19.417  23.453 -22.566  1.00  0.00     0.010 C 
HETATM   12  C   UNL     1     -18.789  21.468 -18.500  1.00  0.00     0.033 C 
HETATM   13  C   UNL     1     -18.709  25.440 -23.917  1.00  0.00    -0.068 C 
HETATM   14  C   UNL     1     -19.852  24.517 -23.570  1.00  0.00     0.035 C 
HETATM   15  C   UNL     1     -18.737  24.582 -18.257  1.00  0.00     0.018 C 
HETATM   16  C   UNL     1     -16.542  26.638 -23.346  1.00  0.00     0.022 C 
HETATM   17  C   UNL     1     -18.713  27.221 -22.164  1.00  0.00     0.020 C 
HETATM   18  C   UNL     1     -16.736  27.532 -24.574  1.00  0.00     0.084 C 
HETATM   19  C   UNL     1     -18.574  25.842 -25.194  1.00  0.00     0.053 C 
HETATM   20  C   UNL     1     -17.576  26.841 -25.598  1.00  0.00     0.149 C 
ENDROOT
BRANCH   9  21
HETATM   21  O   UNL     1     -16.392  21.680 -18.485  1.00  0.00    -0.395 OA
HETATM   22  H   UNL     1     -16.649  20.747 -18.706  1.00  0.00     0.210 HD
ENDBRANCH   9  21
TORSDOF 1
ENDMDL
