12304592
  -OEChem-11072508203D

 49 52  0     1  0  0  0  0  0999 V2000
    4.1549   -0.6605    1.8629 O   0  0  0  0  0  0  0  0  0  0  0  0
   -5.5004    0.1944    1.1011 O   0  0  0  0  0  0  0  0  0  0  0  0
    2.0787    0.6437    0.2331 C   0  0  2  0  0  0  0  0  0  0  0  0
    2.8182   -0.6422   -0.1885 C   0  0  2  0  0  0  0  0  0  0  0  0
    0.6768    0.7471   -0.3793 C   0  0  1  0  0  0  0  0  0  0  0  0
   -0.1707   -0.4779    0.0867 C   0  0  1  0  0  0  0  0  0  0  0  0
   -1.6510   -0.4420   -0.4576 C   0  0  2  0  0  0  0  0  0  0  0  0
    2.0138   -1.8381    0.3411 C   0  0  0  0  0  0  0  0  0  0  0  0
    0.5633   -1.8217   -0.1748 C   0  0  0  0  0  0  0  0  0  0  0  0
    4.1955   -0.3972    0.4634 C   0  0  1  0  0  0  0  0  0  0  0  0
    3.0883    1.7502   -0.0558 C   0  0  0  0  0  0  0  0  0  0  0  0
   -0.0169    2.0529    0.0289 C   0  0  0  0  0  0  0  0  0  0  0  0
    4.4568    1.1076    0.2438 C   0  0  0  0  0  0  0  0  0  0  0  0
   -2.2628    0.9387   -0.1874 C   0  0  0  0  0  0  0  0  0  0  0  0
   -1.4207    2.1372   -0.5560 C   0  0  0  0  0  0  0  0  0  0  0  0
    3.0257   -0.7862   -1.7178 C   0  0  0  0  0  0  0  0  0  0  0  0
   -2.4700   -1.5407    0.2808 C   0  0  0  0  0  0  0  0  0  0  0  0
   -1.7144   -0.7078   -1.9788 C   0  0  0  0  0  0  0  0  0  0  0  0
   -3.9751   -1.3790    0.1375 C   0  0  0  0  0  0  0  0  0  0  0  0
   -3.4896    1.1292    0.3263 C   0  0  0  0  0  0  0  0  0  0  0  0
   -4.4006   -0.0078    0.5903 C   0  0  0  0  0  0  0  0  0  0  0  0
    1.9336    0.6350    1.3245 H   0  0  0  0  0  0  0  0  0  0  0  0
    0.7615    0.7439   -1.4717 H   0  0  0  0  0  0  0  0  0  0  0  0
   -0.2420   -0.3920    1.1834 H   0  0  0  0  0  0  0  0  0  0  0  0
    1.9819   -1.8279    1.4377 H   0  0  0  0  0  0  0  0  0  0  0  0
    2.4955   -2.7808    0.0551 H   0  0  0  0  0  0  0  0  0  0  0  0
    0.5617   -2.0551   -1.2438 H   0  0  0  0  0  0  0  0  0  0  0  0
    0.0287   -2.6412    0.3181 H   0  0  0  0  0  0  0  0  0  0  0  0
    4.9898   -1.0165    0.0359 H   0  0  0  0  0  0  0  0  0  0  0  0
    2.9200    2.6303    0.5735 H   0  0  0  0  0  0  0  0  0  0  0  0
    3.0397    2.0780   -1.1002 H   0  0  0  0  0  0  0  0  0  0  0  0
    0.5620    2.9149   -0.3226 H   0  0  0  0  0  0  0  0  0  0  0  0
   -0.0673    2.1286    1.1229 H   0  0  0  0  0  0  0  0  0  0  0  0
    5.1201    1.2628   -0.6145 H   0  0  0  0  0  0  0  0  0  0  0  0
    4.9239    1.5747    1.1176 H   0  0  0  0  0  0  0  0  0  0  0  0
   -1.3591    2.2059   -1.6491 H   0  0  0  0  0  0  0  0  0  0  0  0
   -1.8861    3.0708   -0.2164 H   0  0  0  0  0  0  0  0  0  0  0  0
    3.5809   -1.7059   -1.9373 H   0  0  0  0  0  0  0  0  0  0  0  0
    2.0857   -0.8380   -2.2730 H   0  0  0  0  0  0  0  0  0  0  0  0
    3.6000    0.0415   -2.1455 H   0  0  0  0  0  0  0  0  0  0  0  0
   -2.2278   -1.5187    1.3527 H   0  0  0  0  0  0  0  0  0  0  0  0
   -2.1927   -2.5387   -0.0790 H   0  0  0  0  0  0  0  0  0  0  0  0
   -1.4420   -1.7407   -2.2196 H   0  0  0  0  0  0  0  0  0  0  0  0
   -2.7240   -0.5450   -2.3740 H   0  0  0  0  0  0  0  0  0  0  0  0
   -1.0444   -0.0518   -2.5431 H   0  0  0  0  0  0  0  0  0  0  0  0
   -4.4774   -2.1237    0.7649 H   0  0  0  0  0  0  0  0  0  0  0  0
   -4.3044   -1.5267   -0.8957 H   0  0  0  0  0  0  0  0  0  0  0  0
   -3.8838    2.1222    0.5154 H   0  0  0  0  0  0  0  0  0  0  0  0
    3.6541    0.0419    2.3085 H   0  0  0  0  0  0  0  0  0  0  0  0
  1 10  1  0  0  0  0
  1 49  1  0  0  0  0
  2 21  2  0  0  0  0
  3  4  1  0  0  0  0
  3  5  1  0  0  0  0
  3 11  1  0  0  0  0
  3 22  1  0  0  0  0
  4  8  1  0  0  0  0
  4 10  1  0  0  0  0
  4 16  1  0  0  0  0
  5  6  1  0  0  0  0
  5 12  1  0  0  0  0
  5 23  1  0  0  0  0
  6  7  1  0  0  0  0
  6  9  1  0  0  0  0
  6 24  1  0  0  0  0
  7 14  1  0  0  0  0
  7 17  1  0  0  0  0
  7 18  1  0  0  0  0
  8  9  1  0  0  0  0
  8 25  1  0  0  0  0
  8 26  1  0  0  0  0
  9 27  1  0  0  0  0
  9 28  1  0  0  0  0
 10 13  1  0  0  0  0
 10 29  1  0  0  0  0
 11 13  1  0  0  0  0
 11 30  1  0  0  0  0
 11 31  1  0  0  0  0
 12 15  1  0  0  0  0
 12 32  1  0  0  0  0
 12 33  1  0  0  0  0
 13 34  1  0  0  0  0
 13 35  1  0  0  0  0
 14 15  1  0  0  0  0
 14 20  2  0  0  0  0
 15 36  1  0  0  0  0
 15 37  1  0  0  0  0
 16 38  1  0  0  0  0
 16 39  1  0  0  0  0
 16 40  1  0  0  0  0
 17 19  1  0  0  0  0
 17 41  1  0  0  0  0
 17 42  1  0  0  0  0
 18 43  1  0  0  0  0
 18 44  1  0  0  0  0
 18 45  1  0  0  0  0
 19 21  1  0  0  0  0
 19 46  1  0  0  0  0
 19 47  1  0  0  0  0
 20 21  1  0  0  0  0
 20 48  1  0  0  0  0
M  END
> <PUBCHEM_COMPOUND_CID>
12304592

> <PUBCHEM_CONFORMER_RMSD>
0.6

> <PUBCHEM_CONFORMER_DIVERSEORDER>
1

> <PUBCHEM_MMFF94_PARTIAL_CHARGES>
11
1 -0.68
10 0.28
14 -0.28
15 0.14
19 0.06
2 -0.57
20 -0.14
21 0.49
48 0.15
49 0.4
7 0.14

> <PUBCHEM_EFFECTIVE_ROTOR_COUNT>
1.8

> <PUBCHEM_PHARMACOPHORE_FEATURES>
7
1 1 acceptor
1 1 donor
1 2 acceptor
5 3 4 10 11 13 rings
6 3 4 5 6 8 9 rings
6 5 6 7 12 14 15 rings
6 7 14 17 19 20 21 rings

> <PUBCHEM_HEAVY_ATOM_COUNT>
21

> <PUBCHEM_ATOM_DEF_STEREO_COUNT>
5

> <PUBCHEM_ATOM_UDEF_STEREO_COUNT>
1

> <PUBCHEM_BOND_DEF_STEREO_COUNT>
0

> <PUBCHEM_BOND_UDEF_STEREO_COUNT>
0

> <PUBCHEM_ISOTOPIC_ATOM_COUNT>
0

> <PUBCHEM_COMPONENT_COUNT>
1

> <PUBCHEM_CACTVS_TAUTO_COUNT>
5

> <PUBCHEM_CONFORMER_ID>
00BBC0D000000001

> <PUBCHEM_MMFF94_ENERGY>
67.6418

> <PUBCHEM_FEATURE_SELFOVERLAP>
35.615

> <PUBCHEM_SHAPE_FINGERPRINT>
10618630 7 18335139803831937549
10967382 1 18410012143325985524
11132069 177 18413109446423124559
12011746 2 18410296887521842941
12236239 1 17917712409628864247
12251169 10 18412549816743173673
12403814 3 18413100663373350893
12553582 1 18409165502208631213
12633257 1 18334297578268095683
13140716 1 18337952423263409009
13214271 11 18412260653590419559
13221675 6 18412825763579990391
13224815 77 18409726270371316124
13296908 3 18201441359053262198
13583140 156 16879043374240388972
13675066 3 17988924474397263266
14178342 30 18122619458091895912
14223421 5 18263925440691383431
14341114 176 18333733498843452058
14341114 328 18409169925988009810
14787075 74 18337392754770685161
14790565 3 17976269245933864316
15196674 1 18410293626876819465
15375462 189 18412819183653319056
15536298 74 18272376364387698814
15788980 27 16298099895734803855
16945 1 18265614290615041884
17349148 13 17676485047046373930
1813 80 17312831472011850213
18186145 218 18334009497715761406
19050596 39 18408321094442673955
19141452 34 18131354128755129287
19784866 170 18411706482344487679
200 152 18270387395783624735
20028762 73 18127415777100660943
20261772 1 18343300374827657174
20510252 161 18272373014493101881
21033648 29 16988273192992104491
21267235 1 18409459071787029339
21421861 104 18114740408990343450
21637258 2 15719680965436912401
22182313 1 18198904699628118804
22854114 59 18410859858454241403
23184049 59 18202570566221923253
23402539 116 18340759433541860574
23557571 272 18271534104406102636
23559900 14 18268993077305472846
2748010 2 18412256220941694012
2838139 119 15122113803201182449
296302 2 14764341656468618386
3286 77 17603583011009208036
34934 24 18410851045439819301
350125 39 18410295775072636904
5104073 3 18410294756801365867
5374978 207 18333732411757777264
633830 44 18342176700062163870
7097593 13 17536581907528045402
9709674 26 18410860957765883262

> <PUBCHEM_SHAPE_MULTIPOLES>
420.43
9.1
2.06
1.19
2.33
0.36
0.3
-0.05
-2.99
-0.08
0.07
-0.33
-0.31
-0.06

> <PUBCHEM_SHAPE_SELFOVERLAP>
902.779

> <PUBCHEM_SHAPE_VOLUME>
230.5

> <PUBCHEM_COORDINATE_TYPE>
2
5
10

$$$$
