REMARK  1 active torsions:
REMARK  status: ('A' for Active; 'I' for Inactive)
REMARK    1  A    between atoms: O_1  and  C_10 
ROOT
HETATM    1  O   UNL     1       6.003  -0.771  -0.425  1.00  0.00    -0.293 OA
HETATM    2  C   UNL     1      -1.738  -0.265  -0.814  1.00  0.00     0.001 C 
HETATM    3  C   UNL     1      -2.480  -0.127   0.520  1.00  0.00    -0.014 C 
HETATM    4  C   UNL     1      -0.322   0.350  -0.769  1.00  0.00    -0.004 C 
HETATM    5  C   UNL     1       0.510  -0.395   0.330  1.00  0.00     0.002 C 
HETATM    6  C   UNL     1       1.995   0.133   0.434  1.00  0.00    -0.016 C 
HETATM    7  C   UNL     1      -1.702  -0.940   1.582  1.00  0.00     0.012 C 
HETATM    8  C   UNL     1      -0.239  -0.451   1.702  1.00  0.00     0.007 C 
HETATM    9  C   UNL     1      -3.881  -0.663   0.146  1.00  0.00     0.126 C 
HETATM   10  C   UNL     1      -2.726   0.236  -1.858  1.00  0.00     0.008 C 
HETATM   11  C   UNL     1       0.375   0.209  -2.133  1.00  0.00     0.010 C 
HETATM   12  C   UNL     1      -4.101  -0.178  -1.304  1.00  0.00     0.033 C 
HETATM   13  C   UNL     1       2.598   0.213  -0.978  1.00  0.00    -0.068 C 
HETATM   14  C   UNL     1       1.775   0.814  -2.093  1.00  0.00     0.035 C 
HETATM   15  C   UNL     1      -2.651   1.347   1.006  1.00  0.00     0.018 C 
HETATM   16  C   UNL     1       2.823  -0.861   1.313  1.00  0.00     0.022 C 
HETATM   17  C   UNL     1       2.059   1.548   1.065  1.00  0.00     0.020 C 
HETATM   18  C   UNL     1       4.331  -0.599   1.266  1.00  0.00     0.084 C 
HETATM   19  C   UNL     1       3.897  -0.050  -1.210  1.00  0.00     0.053 C 
HETATM   20  C   UNL     1       4.803  -0.508  -0.148  1.00  0.00     0.149 C 
ENDROOT
BRANCH   9  21
HETATM   21  O   UNL     1      -3.920  -2.069   0.173  1.00  0.00    -0.395 OA
HETATM   22  H   UNL     1      -4.156  -2.332   1.101  1.00  0.00     0.210 HD
ENDBRANCH   9  21
TORSDOF 1
