12304592
     RDKit          3D

 49 52  0  0  1  0  0  0  0  0999 V2000
   -3.9198   -2.0689    0.1729 O   0  0  0  0  0  0  0  0  0  0  0  0
    6.0032   -0.7706   -0.4246 O   0  0  0  0  0  0  0  0  0  0  0  0
   -1.7376   -0.2646   -0.8136 C   0  0  2  0  0  0  0  0  0  0  0  0
   -2.4798   -0.1271    0.5201 C   0  0  2  0  0  0  0  0  0  0  0  0
   -0.3221    0.3505   -0.7695 C   0  0  1  0  0  0  0  0  0  0  0  0
    0.5099   -0.3946    0.3296 C   0  0  1  0  0  0  0  0  0  0  0  0
    1.9948    0.1330    0.4341 C   0  0  2  0  0  0  0  0  0  0  0  0
   -1.7015   -0.9403    1.5817 C   0  0  0  0  0  0  0  0  0  0  0  0
   -0.2386   -0.4512    1.7021 C   0  0  0  0  0  0  0  0  0  0  0  0
   -3.8811   -0.6631    0.1464 C   0  0  1  0  0  0  0  0  0  0  0  0
   -2.7262    0.2359   -1.8576 C   0  0  0  0  0  0  0  0  0  0  0  0
    0.3754    0.2090   -2.1328 C   0  0  0  0  0  0  0  0  0  0  0  0
   -4.1007   -0.1777   -1.3042 C   0  0  0  0  0  0  0  0  0  0  0  0
    2.5975    0.2129   -0.9775 C   0  0  0  0  0  0  0  0  0  0  0  0
    1.7753    0.8142   -2.0933 C   0  0  0  0  0  0  0  0  0  0  0  0
   -2.6513    1.3472    1.0060 C   0  0  0  0  0  0  0  0  0  0  0  0
    2.8228   -0.8611    1.3129 C   0  0  0  0  0  0  0  0  0  0  0  0
    2.0588    1.5482    1.0647 C   0  0  0  0  0  0  0  0  0  0  0  0
    4.3306   -0.5990    1.2660 C   0  0  0  0  0  0  0  0  0  0  0  0
    3.8970   -0.0499   -1.2098 C   0  0  0  0  0  0  0  0  0  0  0  0
    4.8028   -0.5077   -0.1485 C   0  0  0  0  0  0  0  0  0  0  0  0
   -1.6039   -1.3535   -1.0301 H   0  0  0  0  0  0  0  0  0  0  0  0
   -0.4004    1.4324   -0.5453 H   0  0  0  0  0  0  0  0  0  0  0  0
    0.5782   -1.4549   -0.0092 H   0  0  0  0  0  0  0  0  0  0  0  0
   -1.6805   -2.0184    1.3103 H   0  0  0  0  0  0  0  0  0  0  0  0
   -2.2042   -0.8576    2.5698 H   0  0  0  0  0  0  0  0  0  0  0  0
    0.2810   -1.1571    2.3819 H   0  0  0  0  0  0  0  0  0  0  0  0
   -0.2249    0.5364    2.2017 H   0  0  0  0  0  0  0  0  0  0  0  0
   -4.6801   -0.2497    0.8081 H   0  0  0  0  0  0  0  0  0  0  0  0
   -2.6616    1.3410   -1.9617 H   0  0  0  0  0  0  0  0  0  0  0  0
   -2.5377   -0.2348   -2.8472 H   0  0  0  0  0  0  0  0  0  0  0  0
    0.4437   -0.8632   -2.4233 H   0  0  0  0  0  0  0  0  0  0  0  0
   -0.2094    0.7393   -2.9150 H   0  0  0  0  0  0  0  0  0  0  0  0
   -4.7883    0.6961   -1.3168 H   0  0  0  0  0  0  0  0  0  0  0  0
   -4.5480   -0.9805   -1.9309 H   0  0  0  0  0  0  0  0  0  0  0  0
    1.7036    1.9124   -1.9383 H   0  0  0  0  0  0  0  0  0  0  0  0
    2.2511    0.6470   -3.0849 H   0  0  0  0  0  0  0  0  0  0  0  0
   -3.2124    1.9619    0.2720 H   0  0  0  0  0  0  0  0  0  0  0  0
   -1.6912    1.8622    1.1956 H   0  0  0  0  0  0  0  0  0  0  0  0
   -3.2233    1.3639    1.9584 H   0  0  0  0  0  0  0  0  0  0  0  0
    2.6469   -1.9044    0.9674 H   0  0  0  0  0  0  0  0  0  0  0  0
    2.5054   -0.8072    2.3757 H   0  0  0  0  0  0  0  0  0  0  0  0
    1.8232    1.5204    2.1487 H   0  0  0  0  0  0  0  0  0  0  0  0
    1.3583    2.2509    0.5722 H   0  0  0  0  0  0  0  0  0  0  0  0
    3.0767    1.9799    0.9597 H   0  0  0  0  0  0  0  0  0  0  0  0
    4.5757    0.3453    1.7960 H   0  0  0  0  0  0  0  0  0  0  0  0
    4.8597   -1.4282    1.7840 H   0  0  0  0  0  0  0  0  0  0  0  0
    4.3093    0.0775   -2.2041 H   0  0  0  0  0  0  0  0  0  0  0  0
   -4.1564   -2.3322    1.1005 H   0  0  0  0  0  0  0  0  0  0  0  0
  1 10  1  0
  1 49  1  0
  2 21  2  0
  3  4  1  0
  3  5  1  0
  3 11  1  0
  3 22  1  6
  4  8  1  0
  4 10  1  0
  4 16  1  1
  5  6  1  0
  5 12  1  0
  5 23  1  1
  6  7  1  0
  6  9  1  0
  6 24  1  6
  7 14  1  0
  7 17  1  0
  7 18  1  1
  8  9  1  0
  8 25  1  0
  8 26  1  0
  9 27  1  0
  9 28  1  0
 10 13  1  0
 10 29  1  1
 11 13  1  0
 11 30  1  0
 11 31  1  0
 12 15  1  0
 12 32  1  0
 12 33  1  0
 13 34  1  0
 13 35  1  0
 14 15  1  0
 14 20  2  0
 15 36  1  0
 15 37  1  0
 16 38  1  0
 16 39  1  0
 16 40  1  0
 17 19  1  0
 17 41  1  0
 17 42  1  0
 18 43  1  0
 18 44  1  0
 18 45  1  0
 19 21  1  0
 19 46  1  0
 19 47  1  0
 20 21  1  0
 20 48  1  0
M  END
$$$$
