MODEL 1
REMARK VINA RESULT:    -8.750      0.000      0.000
REMARK INTER + INTRA:          -9.261
REMARK INTER:                  -9.261
REMARK INTRA:                   0.000
REMARK UNBOUND:                 0.000
REMARK  2 active torsions:
REMARK  status: ('A' for Active; 'I' for Inactive)
REMARK    1  A    between atoms: C_10  and  O_11 
REMARK    2  A    between atoms: C_18  and  O_20 
ROOT
HETATM    1  C   UNL     1     -18.323  25.321 -18.359  1.00  0.00     0.018 C 
HETATM    2  C   UNL     1     -17.738  24.202 -19.279  1.00  0.00    -0.014 C 
HETATM    3  C   UNL     1     -18.202  22.817 -18.782  1.00  0.00     0.013 C 
HETATM    4  C   UNL     1     -17.562  22.458 -17.415  1.00  0.00     0.010 C 
HETATM    5  C   UNL     1     -16.009  22.610 -17.401  1.00  0.00     0.023 C 
HETATM    6  C   UNL     1     -15.563  23.995 -17.960  1.00  0.00    -0.001 C 
HETATM    7  C   UNL     1     -16.203  24.187 -19.347  1.00  0.00     0.001 C 
HETATM    8  C   UNL     1     -15.840  25.411 -20.180  1.00  0.00     0.008 C 
HETATM    9  C   UNL     1     -16.986  25.522 -21.203  1.00  0.00     0.033 C 
HETATM   10  C   UNL     1     -18.069  24.505 -20.756  1.00  0.00     0.126 C 
HETATM   11  C   UNL     1     -14.030  24.032 -18.017  1.00  0.00     0.010 C 
HETATM   12  C   UNL     1     -13.455  23.982 -16.600  1.00  0.00     0.039 C 
HETATM   13  C   UNL     1     -14.115  22.948 -15.713  1.00  0.00    -0.049 A 
HETATM   14  C   UNL     1     -15.364  22.351 -16.038  1.00  0.00    -0.047 A 
HETATM   15  C   UNL     1     -15.903  21.397 -15.147  1.00  0.00     0.011 A 
HETATM   16  C   UNL     1     -15.265  21.102 -13.940  1.00  0.00     0.037 A 
HETATM   17  C   UNL     1     -14.064  21.729 -13.607  1.00  0.00     0.066 A 
HETATM   18  C   UNL     1     -13.495  22.647 -14.490  1.00  0.00     0.044 A 
ENDROOT
BRANCH  10  19
HETATM   19  O   UNL     1     -19.389  24.952 -20.963  1.00  0.00    -0.395 OA
HETATM   20  H   UNL     1     -20.003  24.176 -20.909  1.00  0.00     0.210 HD
ENDBRANCH  10  19
BRANCH  17  21
HETATM   21  O   UNL     1     -13.424  21.444 -12.403  1.00  0.00    -0.361 OA
HETATM   22  H   UNL     1     -12.835  22.127 -11.941  1.00  0.00     0.217 HD
ENDBRANCH  17  21
TORSDOF 2
ENDMDL
