MODEL 1
REMARK VINA RESULT:    -8.750      0.000      0.000
REMARK INTER + INTRA:          -9.261
REMARK INTER:                  -9.261
REMARK INTRA:                   0.000
REMARK UNBOUND:                 0.000
REMARK  2 active torsions:
REMARK  status: ('A' for Active; 'I' for Inactive)
REMARK    1  A    between atoms: C_10  and  O_11 
REMARK    2  A    between atoms: C_18  and  O_20 
ROOT
HETATM    1  C   UNL     1     -18.323  25.321 -18.359  1.00  0.00     0.018 C 
HETATM    2  C   UNL     1     -17.738  24.202 -19.279  1.00  0.00    -0.014 C 
HETATM    3  C   UNL     1     -18.202  22.817 -18.782  1.00  0.00     0.013 C 
HETATM    4  C   UNL     1     -17.562  22.458 -17.415  1.00  0.00     0.010 C 
HETATM    5  C   UNL     1     -16.009  22.610 -17.401  1.00  0.00     0.023 C 
HETATM    6  C   UNL     1     -15.563  23.995 -17.960  1.00  0.00    -0.001 C 
HETATM    7  C   UNL     1     -16.203  24.187 -19.347  1.00  0.00     0.001 C 
HETATM    8  C   UNL     1     -15.840  25.411 -20.180  1.00  0.00     0.008 C 
HETATM    9  C   UNL     1     -16.986  25.522 -21.203  1.00  0.00     0.033 C 
HETATM   10  C   UNL     1     -18.069  24.505 -20.756  1.00  0.00     0.126 C 
HETATM   11  C   UNL     1     -14.030  24.032 -18.017  1.00  0.00     0.010 C 
HETATM   12  C   UNL     1     -13.455  23.982 -16.600  1.00  0.00     0.039 C 
HETATM   13  C   UNL     1     -14.115  22.948 -15.713  1.00  0.00    -0.049 A 
HETATM   14  C   UNL     1     -15.364  22.351 -16.038  1.00  0.00    -0.047 A 
HETATM   15  C   UNL     1     -15.903  21.397 -15.147  1.00  0.00     0.011 A 
HETATM   16  C   UNL     1     -15.265  21.102 -13.940  1.00  0.00     0.037 A 
HETATM   17  C   UNL     1     -14.064  21.729 -13.607  1.00  0.00     0.066 A 
HETATM   18  C   UNL     1     -13.495  22.647 -14.490  1.00  0.00     0.044 A 
ENDROOT
BRANCH  10  19
HETATM   19  O   UNL     1     -19.389  24.952 -20.963  1.00  0.00    -0.395 OA
HETATM   20  H   UNL     1     -20.003  24.176 -20.909  1.00  0.00     0.210 HD
ENDBRANCH  10  19
BRANCH  17  21
HETATM   21  O   UNL     1     -13.424  21.444 -12.403  1.00  0.00    -0.361 OA
HETATM   22  H   UNL     1     -12.835  22.127 -11.941  1.00  0.00     0.217 HD
ENDBRANCH  17  21
TORSDOF 2
ENDMDL
MODEL 2
REMARK VINA RESULT:    -8.274      2.147      6.661
REMARK INTER + INTRA:          -8.758
REMARK INTER:                  -8.758
REMARK INTRA:                   0.000
REMARK UNBOUND:                 0.000
REMARK  2 active torsions:
REMARK  status: ('A' for Active; 'I' for Inactive)
REMARK    1  A    between atoms: C_10  and  O_11 
REMARK    2  A    between atoms: C_18  and  O_20 
ROOT
HETATM    1  C   UNL     1     -13.269  20.624 -13.187  1.00  0.00     0.018 C 
HETATM    2  C   UNL     1     -13.707  22.094 -12.884  1.00  0.00    -0.014 C 
HETATM    3  C   UNL     1     -15.209  22.132 -12.533  1.00  0.00     0.013 C 
HETATM    4  C   UNL     1     -16.091  21.794 -13.764  1.00  0.00     0.010 C 
HETATM    5  C   UNL     1     -15.747  22.651 -15.023  1.00  0.00     0.023 C 
HETATM    6  C   UNL     1     -14.219  22.641 -15.324  1.00  0.00    -0.001 C 
HETATM    7  C   UNL     1     -13.470  23.069 -14.047  1.00  0.00     0.001 C 
HETATM    8  C   UNL     1     -11.960  23.263 -14.090  1.00  0.00     0.008 C 
HETATM    9  C   UNL     1     -11.529  23.185 -12.613  1.00  0.00     0.033 C 
HETATM   10  C   UNL     1     -12.776  22.714 -11.820  1.00  0.00     0.126 C 
HETATM   11  C   UNL     1     -13.943  23.585 -16.502  1.00  0.00     0.010 C 
HETATM   12  C   UNL     1     -14.591  23.032 -17.773  1.00  0.00     0.039 C 
HETATM   13  C   UNL     1     -16.006  22.537 -17.567  1.00  0.00    -0.049 A 
HETATM   14  C   UNL     1     -16.541  22.273 -16.275  1.00  0.00    -0.047 A 
HETATM   15  C   UNL     1     -17.872  21.810 -16.183  1.00  0.00     0.011 A 
HETATM   16  C   UNL     1     -18.621  21.546 -17.331  1.00  0.00     0.037 A 
HETATM   17  C   UNL     1     -18.072  21.762 -18.595  1.00  0.00     0.066 A 
HETATM   18  C   UNL     1     -16.772  22.255 -18.710  1.00  0.00     0.044 A 
ENDROOT
BRANCH  10  19
HETATM   19  O   UNL     1     -12.476  21.846 -10.751  1.00  0.00    -0.395 OA
HETATM   20  H   UNL     1     -13.207  21.182 -10.662  1.00  0.00     0.210 HD
ENDBRANCH  10  19
BRANCH  17  21
HETATM   21  O   UNL     1     -18.811  21.497 -19.746  1.00  0.00    -0.361 OA
HETATM   22  H   UNL     1     -19.377  22.211 -20.189  1.00  0.00     0.217 HD
ENDBRANCH  17  21
TORSDOF 2
ENDMDL
MODEL 3
REMARK VINA RESULT:    -8.202      2.294      4.479
REMARK INTER + INTRA:          -8.681
REMARK INTER:                  -8.681
REMARK INTRA:                   0.000
REMARK UNBOUND:                 0.000
REMARK  2 active torsions:
REMARK  status: ('A' for Active; 'I' for Inactive)
REMARK    1  A    between atoms: C_10  and  O_11 
REMARK    2  A    between atoms: C_18  and  O_20 
ROOT
HETATM    1  C   UNL     1     -17.477  24.757 -23.480  1.00  0.00     0.018 C 
HETATM    2  C   UNL     1     -18.717  25.209 -22.642  1.00  0.00    -0.014 C 
HETATM    3  C   UNL     1     -18.276  26.197 -21.543  1.00  0.00     0.013 C 
HETATM    4  C   UNL     1     -17.411  25.498 -20.462  1.00  0.00     0.010 C 
HETATM    5  C   UNL     1     -18.072  24.210 -19.879  1.00  0.00     0.023 C 
HETATM    6  C   UNL     1     -18.558  23.254 -21.009  1.00  0.00    -0.001 C 
HETATM    7  C   UNL     1     -19.466  24.053 -21.963  1.00  0.00     0.001 C 
HETATM    8  C   UNL     1     -20.182  23.333 -23.099  1.00  0.00     0.008 C 
HETATM    9  C   UNL     1     -20.553  24.460 -24.083  1.00  0.00     0.033 C 
HETATM   10  C   UNL     1     -19.826  25.733 -23.580  1.00  0.00     0.126 C 
HETATM   11  C   UNL     1     -19.291  22.068 -20.369  1.00  0.00     0.010 C 
HETATM   12  C   UNL     1     -18.306  21.229 -19.550  1.00  0.00     0.039 C 
HETATM   13  C   UNL     1     -17.382  22.056 -18.681  1.00  0.00    -0.049 A 
HETATM   14  C   UNL     1     -17.198  23.453 -18.878  1.00  0.00    -0.047 A 
HETATM   15  C   UNL     1     -16.312  24.139 -18.018  1.00  0.00     0.011 A 
HETATM   16  C   UNL     1     -15.577  23.453 -17.049  1.00  0.00     0.037 A 
HETATM   17  C   UNL     1     -15.729  22.075 -16.895  1.00  0.00     0.066 A 
HETATM   18  C   UNL     1     -16.626  21.383 -17.708  1.00  0.00     0.044 A 
ENDROOT
BRANCH  10  19
HETATM   19  O   UNL     1     -19.350  26.563 -24.615  1.00  0.00    -0.395 OA
HETATM   20  H   UNL     1     -19.020  27.411 -24.221  1.00  0.00     0.210 HD
ENDBRANCH  10  19
BRANCH  17  21
HETATM   21  O   UNL     1     -14.996  21.382 -15.933  1.00  0.00    -0.361 OA
HETATM   22  H   UNL     1     -14.845  21.763 -15.006  1.00  0.00     0.217 HD
ENDBRANCH  17  21
TORSDOF 2
ENDMDL
MODEL 4
REMARK VINA RESULT:    -8.035      1.628      6.649
REMARK INTER + INTRA:          -8.505
REMARK INTER:                  -8.505
REMARK INTRA:                   0.000
REMARK UNBOUND:                 0.000
REMARK  2 active torsions:
REMARK  status: ('A' for Active; 'I' for Inactive)
REMARK    1  A    between atoms: C_10  and  O_11 
REMARK    2  A    between atoms: C_18  and  O_20 
ROOT
HETATM    1  C   UNL     1     -16.070  20.915 -17.899  1.00  0.00     0.018 C 
HETATM    2  C   UNL     1     -16.652  22.044 -16.988  1.00  0.00    -0.014 C 
HETATM    3  C   UNL     1     -18.183  22.123 -17.161  1.00  0.00     0.013 C 
HETATM    4  C   UNL     1     -18.571  22.635 -18.573  1.00  0.00     0.010 C 
HETATM    5  C   UNL     1     -17.854  23.965 -18.966  1.00  0.00     0.023 C 
HETATM    6  C   UNL     1     -16.316  23.879 -18.729  1.00  0.00    -0.001 C 
HETATM    7  C   UNL     1     -16.073  23.438 -17.274  1.00  0.00     0.001 C 
HETATM    8  C   UNL     1     -14.650  23.387 -16.731  1.00  0.00     0.008 C 
HETATM    9  C   UNL     1     -14.752  22.469 -15.498  1.00  0.00     0.033 C 
HETATM   10  C   UNL     1     -16.173  21.848 -15.533  1.00  0.00     0.126 C 
HETATM   11  C   UNL     1     -15.695  25.249 -19.032  1.00  0.00     0.010 C 
HETATM   12  C   UNL     1     -15.840  25.568 -20.522  1.00  0.00     0.039 C 
HETATM   13  C   UNL     1     -17.216  25.266 -21.076  1.00  0.00    -0.049 A 
HETATM   14  C   UNL     1     -18.150  24.441 -20.389  1.00  0.00    -0.047 A 
HETATM   15  C   UNL     1     -19.410  24.215 -20.987  1.00  0.00     0.011 A 
HETATM   16  C   UNL     1     -19.705  24.723 -22.253  1.00  0.00     0.037 A 
HETATM   17  C   UNL     1     -18.764  25.492 -22.940  1.00  0.00     0.066 A 
HETATM   18  C   UNL     1     -17.528  25.760 -22.353  1.00  0.00     0.044 A 
ENDROOT
BRANCH  10  19
HETATM   19  O   UNL     1     -16.220  20.510 -15.094  1.00  0.00    -0.395 OA
HETATM   20  H   UNL     1     -16.122  20.492 -14.107  1.00  0.00     0.210 HD
ENDBRANCH  10  19
BRANCH  17  21
HETATM   21  O   UNL     1     -19.050  25.999 -24.206  1.00  0.00    -0.361 OA
HETATM   22  H   UNL     1     -19.226  26.986 -24.355  1.00  0.00     0.217 HD
ENDBRANCH  17  21
TORSDOF 2
ENDMDL
MODEL 5
REMARK VINA RESULT:    -7.682      1.874      7.167
REMARK INTER + INTRA:          -8.131
REMARK INTER:                  -8.131
REMARK INTRA:                   0.000
REMARK UNBOUND:                 0.000
REMARK  2 active torsions:
REMARK  status: ('A' for Active; 'I' for Inactive)
REMARK    1  A    between atoms: C_10  and  O_11 
REMARK    2  A    between atoms: C_18  and  O_20 
ROOT
HETATM    1  C   UNL     1     -13.151  24.596 -12.684  1.00  0.00     0.018 C 
HETATM    2  C   UNL     1     -12.595  23.208 -13.139  1.00  0.00    -0.014 C 
HETATM    3  C   UNL     1     -12.079  23.300 -14.590  1.00  0.00     0.013 C 
HETATM    4  C   UNL     1     -13.241  23.512 -15.596  1.00  0.00     0.010 C 
HETATM    5  C   UNL     1     -14.394  22.472 -15.434  1.00  0.00     0.023 C 
HETATM    6  C   UNL     1     -14.860  22.358 -13.952  1.00  0.00    -0.001 C 
HETATM    7  C   UNL     1     -13.625  22.071 -13.077  1.00  0.00     0.001 C 
HETATM    8  C   UNL     1     -13.806  21.792 -11.590  1.00  0.00     0.008 C 
HETATM    9  C   UNL     1     -12.411  22.049 -10.988  1.00  0.00     0.033 C 
HETATM   10  C   UNL     1     -11.562  22.691 -12.115  1.00  0.00     0.126 C 
HETATM   11  C   UNL     1     -15.913  21.248 -13.851  1.00  0.00     0.010 C 
HETATM   12  C   UNL     1     -17.172  21.653 -14.621  1.00  0.00     0.039 C 
HETATM   13  C   UNL     1     -16.884  22.248 -15.983  1.00  0.00    -0.049 A 
HETATM   14  C   UNL     1     -15.593  22.716 -16.353  1.00  0.00    -0.047 A 
HETATM   15  C   UNL     1     -15.422  23.258 -17.646  1.00  0.00     0.011 A 
HETATM   16  C   UNL     1     -16.507  23.401 -18.514  1.00  0.00     0.037 A 
HETATM   17  C   UNL     1     -17.780  22.983 -18.124  1.00  0.00     0.066 A 
HETATM   18  C   UNL     1     -17.965  22.411 -16.866  1.00  0.00     0.044 A 
ENDROOT
BRANCH  10  19
HETATM   19  O   UNL     1     -10.668  23.681 -11.660  1.00  0.00    -0.395 OA
HETATM   20  H   UNL     1     -10.490  23.534 -10.695  1.00  0.00     0.210 HD
ENDBRANCH  10  19
BRANCH  17  21
HETATM   21  O   UNL     1     -18.868  23.128 -18.981  1.00  0.00    -0.361 OA
HETATM   22  H   UNL     1     -19.162  22.377 -19.596  1.00  0.00     0.217 HD
ENDBRANCH  17  21
TORSDOF 2
ENDMDL
MODEL 6
REMARK VINA RESULT:    -7.624      4.495      6.518
REMARK INTER + INTRA:          -8.070
REMARK INTER:                  -8.070
REMARK INTRA:                   0.000
REMARK UNBOUND:                 0.000
REMARK  2 active torsions:
REMARK  status: ('A' for Active; 'I' for Inactive)
REMARK    1  A    between atoms: C_10  and  O_11 
REMARK    2  A    between atoms: C_18  and  O_20 
ROOT
HETATM    1  C   UNL     1     -18.848  28.014 -24.043  1.00  0.00     0.018 C 
HETATM    2  C   UNL     1     -17.595  27.216 -24.529  1.00  0.00    -0.014 C 
HETATM    3  C   UNL     1     -18.038  25.893 -25.187  1.00  0.00     0.013 C 
HETATM    4  C   UNL     1     -18.643  24.914 -24.147  1.00  0.00     0.010 C 
HETATM    5  C   UNL     1     -17.725  24.687 -22.905  1.00  0.00     0.023 C 
HETATM    6  C   UNL     1     -17.246  26.038 -22.293  1.00  0.00    -0.001 C 
HETATM    7  C   UNL     1     -16.598  26.875 -23.411  1.00  0.00     0.001 C 
HETATM    8  C   UNL     1     -15.931  28.202 -23.068  1.00  0.00     0.008 C 
HETATM    9  C   UNL     1     -15.864  28.947 -24.414  1.00  0.00     0.033 C 
HETATM   10  C   UNL     1     -16.707  28.116 -25.415  1.00  0.00     0.126 C 
HETATM   11  C   UNL     1     -16.266  25.740 -21.150  1.00  0.00     0.010 C 
HETATM   12  C   UNL     1     -16.999  25.034 -20.007  1.00  0.00     0.039 C 
HETATM   13  C   UNL     1     -17.921  23.926 -20.469  1.00  0.00    -0.049 A 
HETATM   14  C   UNL     1     -18.339  23.798 -21.823  1.00  0.00    -0.047 A 
HETATM   15  C   UNL     1     -19.203  22.732 -22.159  1.00  0.00     0.011 A 
HETATM   16  C   UNL     1     -19.695  21.870 -21.177  1.00  0.00     0.037 A 
HETATM   17  C   UNL     1     -19.318  22.033 -19.844  1.00  0.00     0.066 A 
HETATM   18  C   UNL     1     -18.436  23.056 -19.495  1.00  0.00     0.044 A 
ENDROOT
BRANCH  10  19
HETATM   19  O   UNL     1     -17.431  28.899 -26.337  1.00  0.00    -0.395 OA
HETATM   20  H   UNL     1     -17.221  28.590 -27.256  1.00  0.00     0.210 HD
ENDBRANCH  10  19
BRANCH  17  21
HETATM   21  O   UNL     1     -19.808  21.181 -18.857  1.00  0.00    -0.361 OA
HETATM   22  H   UNL     1     -19.628  20.184 -18.879  1.00  0.00     0.217 HD
ENDBRANCH  17  21
TORSDOF 2
ENDMDL
MODEL 7
REMARK VINA RESULT:    -7.308      1.901      3.638
REMARK INTER + INTRA:          -7.735
REMARK INTER:                  -7.735
REMARK INTRA:                   0.000
REMARK UNBOUND:                 0.000
REMARK  2 active torsions:
REMARK  status: ('A' for Active; 'I' for Inactive)
REMARK    1  A    between atoms: C_10  and  O_11 
REMARK    2  A    between atoms: C_18  and  O_20 
ROOT
HETATM    1  C   UNL     1     -16.215  20.840 -18.446  1.00  0.00     0.018 C 
HETATM    2  C   UNL     1     -16.794  22.228 -18.020  1.00  0.00    -0.014 C 
HETATM    3  C   UNL     1     -15.689  23.302 -18.090  1.00  0.00     0.013 C 
HETATM    4  C   UNL     1     -14.603  23.074 -17.006  1.00  0.00     0.010 C 
HETATM    5  C   UNL     1     -15.191  22.912 -15.569  1.00  0.00     0.023 C 
HETATM    6  C   UNL     1     -16.342  21.863 -15.535  1.00  0.00    -0.001 C 
HETATM    7  C   UNL     1     -17.383  22.251 -16.602  1.00  0.00     0.001 C 
HETATM    8  C   UNL     1     -18.682  21.460 -16.707  1.00  0.00     0.008 C 
HETATM    9  C   UNL     1     -19.202  21.781 -18.121  1.00  0.00     0.033 C 
HETATM   10  C   UNL     1     -18.062  22.546 -18.842  1.00  0.00     0.126 C 
HETATM   11  C   UNL     1     -16.941  21.835 -14.123  1.00  0.00     0.010 C 
HETATM   12  C   UNL     1     -15.904  21.305 -13.129  1.00  0.00     0.039 C 
HETATM   13  C   UNL     1     -14.526  21.903 -13.312  1.00  0.00    -0.049 A 
HETATM   14  C   UNL     1     -14.147  22.595 -14.496  1.00  0.00    -0.047 A 
HETATM   15  C   UNL     1     -12.837  23.117 -14.576  1.00  0.00     0.011 A 
HETATM   16  C   UNL     1     -11.913  22.896 -13.554  1.00  0.00     0.037 A 
HETATM   17  C   UNL     1     -12.279  22.174 -12.417  1.00  0.00     0.066 A 
HETATM   18  C   UNL     1     -13.578  21.682 -12.300  1.00  0.00     0.044 A 
ENDROOT
BRANCH  10  19
HETATM   19  O   UNL     1     -17.945  22.235 -20.211  1.00  0.00    -0.395 OA
HETATM   20  H   UNL     1     -17.296  21.492 -20.317  1.00  0.00     0.210 HD
ENDBRANCH  10  19
BRANCH  17  21
HETATM   21  O   UNL     1     -11.361  21.945 -11.395  1.00  0.00    -0.361 OA
HETATM   22  H   UNL     1     -11.254  22.592 -10.623  1.00  0.00     0.217 HD
ENDBRANCH  17  21
TORSDOF 2
ENDMDL
MODEL 8
REMARK VINA RESULT:    -7.296      3.346      7.932
REMARK INTER + INTRA:          -7.723
REMARK INTER:                  -7.723
REMARK INTRA:                   0.000
REMARK UNBOUND:                 0.000
REMARK  2 active torsions:
REMARK  status: ('A' for Active; 'I' for Inactive)
REMARK    1  A    between atoms: C_10  and  O_11 
REMARK    2  A    between atoms: C_18  and  O_20 
ROOT
HETATM    1  C   UNL     1     -18.688  24.936 -18.396  1.00  0.00     0.018 C 
HETATM    2  C   UNL     1     -17.721  23.833 -18.935  1.00  0.00    -0.014 C 
HETATM    3  C   UNL     1     -16.329  24.442 -19.205  1.00  0.00     0.013 C 
HETATM    4  C   UNL     1     -16.363  25.434 -20.398  1.00  0.00     0.010 C 
HETATM    5  C   UNL     1     -17.013  24.831 -21.683  1.00  0.00     0.023 C 
HETATM    6  C   UNL     1     -18.391  24.174 -21.374  1.00  0.00    -0.001 C 
HETATM    7  C   UNL     1     -18.199  23.160 -20.230  1.00  0.00     0.001 C 
HETATM    8  C   UNL     1     -19.367  22.280 -19.802  1.00  0.00     0.008 C 
HETATM    9  C   UNL     1     -18.977  21.800 -18.390  1.00  0.00     0.033 C 
HETATM   10  C   UNL     1     -17.723  22.617 -17.984  1.00  0.00     0.126 C 
HETATM   11  C   UNL     1     -18.919  23.512 -22.653  1.00  0.00     0.010 C 
HETATM   12  C   UNL     1     -19.227  24.581 -23.703  1.00  0.00     0.039 C 
HETATM   13  C   UNL     1     -18.147  25.634 -23.833  1.00  0.00    -0.049 A 
HETATM   14  C   UNL     1     -17.141  25.819 -22.844  1.00  0.00    -0.047 A 
HETATM   15  C   UNL     1     -16.176  26.829 -23.052  1.00  0.00     0.011 A 
HETATM   16  C   UNL     1     -16.250  27.676 -24.160  1.00  0.00     0.037 A 
HETATM   17  C   UNL     1     -17.269  27.517 -25.100  1.00  0.00     0.066 A 
HETATM   18  C   UNL     1     -18.211  26.502 -24.935  1.00  0.00     0.044 A 
ENDROOT
BRANCH  10  19
HETATM   19  O   UNL     1     -17.688  22.963 -16.618  1.00  0.00    -0.395 OA
HETATM   20  H   UNL     1     -17.873  23.933 -16.528  1.00  0.00     0.210 HD
ENDBRANCH  10  19
BRANCH  17  21
HETATM   21  O   UNL     1     -17.352  28.361 -26.205  1.00  0.00    -0.361 OA
HETATM   22  H   UNL     1     -17.227  28.013 -27.149  1.00  0.00     0.217 HD
ENDBRANCH  17  21
TORSDOF 2
ENDMDL
MODEL 9
REMARK VINA RESULT:    -7.221      2.790      7.846
REMARK INTER + INTRA:          -7.643
REMARK INTER:                  -7.643
REMARK INTRA:                   0.000
REMARK UNBOUND:                 0.000
REMARK  2 active torsions:
REMARK  status: ('A' for Active; 'I' for Inactive)
REMARK    1  A    between atoms: C_10  and  O_11 
REMARK    2  A    between atoms: C_18  and  O_20 
ROOT
HETATM    1  C   UNL     1     -18.155  23.850 -17.567  1.00  0.00     0.018 C 
HETATM    2  C   UNL     1     -16.980  23.415 -18.501  1.00  0.00    -0.014 C 
HETATM    3  C   UNL     1     -16.240  24.661 -19.030  1.00  0.00     0.013 C 
HETATM    4  C   UNL     1     -17.126  25.477 -20.008  1.00  0.00     0.010 C 
HETATM    5  C   UNL     1     -17.739  24.612 -21.154  1.00  0.00     0.023 C 
HETATM    6  C   UNL     1     -18.431  23.331 -20.599  1.00  0.00    -0.001 C 
HETATM    7  C   UNL     1     -17.420  22.579 -19.712  1.00  0.00     0.001 C 
HETATM    8  C   UNL     1     -17.794  21.221 -19.132  1.00  0.00     0.008 C 
HETATM    9  C   UNL     1     -16.811  21.030 -17.961  1.00  0.00     0.033 C 
HETATM   10  C   UNL     1     -16.083  22.387 -17.778  1.00  0.00     0.126 C 
HETATM   11  C   UNL     1     -18.912  22.480 -21.781  1.00  0.00     0.010 C 
HETATM   12  C   UNL     1     -20.017  23.219 -22.539  1.00  0.00     0.039 C 
HETATM   13  C   UNL     1     -19.710  24.681 -22.785  1.00  0.00    -0.049 A 
HETATM   14  C   UNL     1     -18.689  25.375 -22.078  1.00  0.00    -0.047 A 
HETATM   15  C   UNL     1     -18.478  26.740 -22.375  1.00  0.00     0.011 A 
HETATM   16  C   UNL     1     -19.298  27.412 -23.284  1.00  0.00     0.037 A 
HETATM   17  C   UNL     1     -20.328  26.734 -23.937  1.00  0.00     0.066 A 
HETATM   18  C   UNL     1     -20.531  25.377 -23.687  1.00  0.00     0.044 A 
ENDROOT
BRANCH  10  19
HETATM   19  O   UNL     1     -15.816  22.712 -16.433  1.00  0.00    -0.395 OA
HETATM   20  H   UNL     1     -16.349  23.510 -16.183  1.00  0.00     0.210 HD
ENDBRANCH  10  19
BRANCH  17  21
HETATM   21  O   UNL     1     -21.154  27.399 -24.842  1.00  0.00    -0.361 OA
HETATM   22  H   UNL     1     -21.864  28.051 -24.531  1.00  0.00     0.217 HD
ENDBRANCH  17  21
TORSDOF 2
ENDMDL
