
     RDKit          3D

 44 47  0  0  0  0  0  0  0  0999 V2000
   -2.3465   -1.4305    0.7033 C   0  0  0  0  0  0  0  0  0  0  0  0
   -2.2669   -0.3986   -0.4675 C   0  0  2  0  0  0  0  0  0  0  0  0
   -1.5883   -1.0465   -1.6934 C   0  0  0  0  0  0  0  0  0  0  0  0
   -0.0864   -1.3289   -1.4290 C   0  0  0  0  0  0  0  0  0  0  0  0
    0.6932   -0.0841   -0.9002 C   0  0  1  0  0  0  0  0  0  0  0  0
   -0.0408    0.5839    0.3012 C   0  0  2  0  0  0  0  0  0  0  0  0
   -1.4915    0.8811   -0.1221 C   0  0  2  0  0  0  0  0  0  0  0  0
   -2.4094    1.6472    0.8238 C   0  0  0  0  0  0  0  0  0  0  0  0
   -3.8270    1.3211    0.3173 C   0  0  0  0  0  0  0  0  0  0  0  0
   -3.6638    0.1991   -0.7407 C   0  0  2  0  0  0  0  0  0  0  0  0
   -4.7029   -0.7529   -0.7246 O   0  0  0  0  0  0  0  0  0  0  0  0
    0.7195    1.8557    0.6967 C   0  0  0  0  0  0  0  0  0  0  0  0
    2.1010    1.4871    1.2439 C   0  0  0  0  0  0  0  0  0  0  0  0
    2.8240    0.4467    0.4153 C   0  0  0  0  0  0  0  0  0  0  0  0
    2.1552   -0.3622   -0.5455 C   0  0  0  0  0  0  0  0  0  0  0  0
    2.9138   -1.3084   -1.2689 C   0  0  0  0  0  0  0  0  0  0  0  0
    4.2696   -1.4992   -0.9982 C   0  0  0  0  0  0  0  0  0  0  0  0
    4.9073   -0.7339   -0.0202 C   0  0  0  0  0  0  0  0  0  0  0  0
    4.1863    0.2323    0.6808 C   0  0  0  0  0  0  0  0  0  0  0  0
    6.2589   -0.9223    0.2603 O   0  0  0  0  0  0  0  0  0  0  0  0
   -1.3579   -1.8166    1.0130 H   0  0  0  0  0  0  0  0  0  0  0  0
   -2.9392   -2.3161    0.3903 H   0  0  0  0  0  0  0  0  0  0  0  0
   -2.8315   -0.9978    1.6026 H   0  0  0  0  0  0  0  0  0  0  0  0
   -2.1032   -1.9959   -1.9569 H   0  0  0  0  0  0  0  0  0  0  0  0
   -1.6712   -0.3729   -2.5751 H   0  0  0  0  0  0  0  0  0  0  0  0
    0.0293   -2.1774   -0.7226 H   0  0  0  0  0  0  0  0  0  0  0  0
    0.3399   -1.6519   -2.4009 H   0  0  0  0  0  0  0  0  0  0  0  0
    0.7170    0.6475   -1.7398 H   0  0  0  0  0  0  0  0  0  0  0  0
   -0.0338   -0.0925    1.1815 H   0  0  0  0  0  0  0  0  0  0  0  0
   -1.4242    1.5157   -1.0413 H   0  0  0  0  0  0  0  0  0  0  0  0
   -2.2746    1.2965    1.8702 H   0  0  0  0  0  0  0  0  0  0  0  0
   -2.2120    2.7404    0.7773 H   0  0  0  0  0  0  0  0  0  0  0  0
   -4.2906    2.2183   -0.1479 H   0  0  0  0  0  0  0  0  0  0  0  0
   -4.4612    1.0024    1.1726 H   0  0  0  0  0  0  0  0  0  0  0  0
   -3.6650    0.6774   -1.7464 H   0  0  0  0  0  0  0  0  0  0  0  0
   -4.9288   -0.9656    0.2172 H   0  0  0  0  0  0  0  0  0  0  0  0
    0.1673    2.4083    1.4868 H   0  0  0  0  0  0  0  0  0  0  0  0
    0.8293    2.5310   -0.1809 H   0  0  0  0  0  0  0  0  0  0  0  0
    2.7152    2.4119    1.3053 H   0  0  0  0  0  0  0  0  0  0  0  0
    1.9845    1.0895    2.2758 H   0  0  0  0  0  0  0  0  0  0  0  0
    2.4761   -1.9056   -2.0535 H   0  0  0  0  0  0  0  0  0  0  0  0
    4.8269   -2.2398   -1.5578 H   0  0  0  0  0  0  0  0  0  0  0  0
    4.6916    0.8218    1.4366 H   0  0  0  0  0  0  0  0  0  0  0  0
    6.8106   -1.6151   -0.2321 H   0  0  0  0  0  0  0  0  0  0  0  0
  2  1  1  1
  2  3  1  0
  3  4  1  0
  4  5  1  0
  5  6  1  0
  6  7  1  0
  7  8  1  0
  8  9  1  0
  9 10  1  0
 10 11  1  0
  6 12  1  0
 12 13  1  0
 13 14  1  0
 14 15  2  0
 15 16  1  0
 16 17  2  0
 17 18  1  0
 18 19  2  0
 18 20  1  0
  7  2  1  0
 10  2  1  0
 15  5  1  0
 19 14  1  0
  1 21  1  0
  1 22  1  0
  1 23  1  0
  3 24  1  0
  3 25  1  0
  4 26  1  0
  4 27  1  0
  5 28  1  6
  6 29  1  1
  7 30  1  6
  8 31  1  0
  8 32  1  0
  9 33  1  0
  9 34  1  0
 10 35  1  6
 11 36  1  0
 12 37  1  0
 12 38  1  0
 13 39  1  0
 13 40  1  0
 16 41  1  0
 17 42  1  0
 19 43  1  0
 20 44  1  0
M  END
$$$$

     RDKit          3D

 44 47  0  0  0  0  0  0  0  0999 V2000
   -2.2717    1.0108   -1.4552 C   0  0  0  0  0  0  0  0  0  0  0  0
   -2.1879    0.7839    0.0894 C   0  0  2  0  0  0  0  0  0  0  0  0
   -1.3484    1.9032    0.7414 C   0  0  0  0  0  0  0  0  0  0  0  0
    0.1458    1.8007    0.3395 C   0  0  0  0  0  0  0  0  0  0  0  0
    0.7529    0.3818    0.5732 C   0  0  1  0  0  0  0  0  0  0  0  0
   -0.1419   -0.7323   -0.0478 C   0  0  2  0  0  0  0  0  0  0  0  0
   -1.5732   -0.5624    0.4947 C   0  0  2  0  0  0  0  0  0  0  0  0
   -2.6376   -1.5924    0.1409 C   0  0  0  0  0  0  0  0  0  0  0  0
   -3.9660   -0.8571    0.3969 C   0  0  0  0  0  0  0  0  0  0  0  0
   -3.6103    0.6208    0.6659 C   0  0  2  0  0  0  0  0  0  0  0  0
   -4.5489    1.4779    0.0682 O   0  0  0  0  0  0  0  0  0  0  0  0
    0.4545   -2.0992    0.3094 C   0  0  0  0  0  0  0  0  0  0  0  0
    1.8134   -2.2685   -0.3751 C   0  0  0  0  0  0  0  0  0  0  0  0
    2.7023   -1.0477   -0.2688 C   0  0  0  0  0  0  0  0  0  0  0  0
    2.1998    0.2315    0.0993 C   0  0  0  0  0  0  0  0  0  0  0  0
    3.1060    1.3122    0.1698 C   0  0  0  0  0  0  0  0  0  0  0  0
    4.4461    1.1491   -0.1842 C   0  0  0  0  0  0  0  0  0  0  0  0
    4.9206   -0.0993   -0.5904 C   0  0  0  0  0  0  0  0  0  0  0  0
    4.0517   -1.1893   -0.6316 C   0  0  0  0  0  0  0  0  0  0  0  0
    6.2555   -0.2692   -0.9513 O   0  0  0  0  0  0  0  0  0  0  0  0
   -1.2813    1.0386   -1.9461 H   0  0  0  0  0  0  0  0  0  0  0  0
   -2.7535    1.9880   -1.6712 H   0  0  0  0  0  0  0  0  0  0  0  0
   -2.8717    0.2238   -1.9567 H   0  0  0  0  0  0  0  0  0  0  0  0
   -1.7433    2.8992    0.4451 H   0  0  0  0  0  0  0  0  0  0  0  0
   -1.4226    1.8374    1.8497 H   0  0  0  0  0  0  0  0  0  0  0  0
    0.2827    2.1019   -0.7202 H   0  0  0  0  0  0  0  0  0  0  0  0
    0.6824    2.5447    0.9634 H   0  0  0  0  0  0  0  0  0  0  0  0
    0.7760    0.2309    1.6766 H   0  0  0  0  0  0  0  0  0  0  0  0
   -0.1447   -0.6512   -1.1553 H   0  0  0  0  0  0  0  0  0  0  0  0
   -1.4920   -0.5953    1.6102 H   0  0  0  0  0  0  0  0  0  0  0  0
   -2.5519   -2.4955    0.7839 H   0  0  0  0  0  0  0  0  0  0  0  0
   -2.5535   -1.8943   -0.9259 H   0  0  0  0  0  0  0  0  0  0  0  0
   -4.6252   -0.9532   -0.4938 H   0  0  0  0  0  0  0  0  0  0  0  0
   -4.4909   -1.2911    1.2758 H   0  0  0  0  0  0  0  0  0  0  0  0
   -3.6021    0.7848    1.7703 H   0  0  0  0  0  0  0  0  0  0  0  0
   -4.3643    2.3862    0.4233 H   0  0  0  0  0  0  0  0  0  0  0  0
   -0.2142   -2.9167   -0.0354 H   0  0  0  0  0  0  0  0  0  0  0  0
    0.5729   -2.1948    1.4116 H   0  0  0  0  0  0  0  0  0  0  0  0
    2.3272   -3.1476    0.0716 H   0  0  0  0  0  0  0  0  0  0  0  0
    1.6485   -2.4851   -1.4532 H   0  0  0  0  0  0  0  0  0  0  0  0
    2.7970    2.2903    0.5038 H   0  0  0  0  0  0  0  0  0  0  0  0
    5.1187    1.9962   -0.1340 H   0  0  0  0  0  0  0  0  0  0  0  0
    4.4310   -2.1542   -0.9467 H   0  0  0  0  0  0  0  0  0  0  0  0
    6.9122    0.5024   -0.9309 H   0  0  0  0  0  0  0  0  0  0  0  0
  2  1  1  6
  2  3  1  0
  3  4  1  0
  4  5  1  0
  5  6  1  0
  6  7  1  0
  7  8  1  0
  8  9  1  0
  9 10  1  0
 10 11  1  0
  6 12  1  0
 12 13  1  0
 13 14  1  0
 14 15  2  0
 15 16  1  0
 16 17  2  0
 17 18  1  0
 18 19  2  0
 18 20  1  0
  7  2  1  0
 10  2  1  0
 15  5  1  0
 19 14  1  0
  1 21  1  0
  1 22  1  0
  1 23  1  0
  3 24  1  0
  3 25  1  0
  4 26  1  0
  4 27  1  0
  5 28  1  1
  6 29  1  6
  7 30  1  1
  8 31  1  0
  8 32  1  0
  9 33  1  0
  9 34  1  0
 10 35  1  1
 11 36  1  0
 12 37  1  0
 12 38  1  0
 13 39  1  0
 13 40  1  0
 16 41  1  0
 17 42  1  0
 19 43  1  0
 20 44  1  0
M  END
$$$$

     RDKit          3D

 44 47  0  0  0  0  0  0  0  0999 V2000
   -2.1573    0.1662    1.8899 C   0  0  0  0  0  0  0  0  0  0  0  0
   -2.1738   -0.6492    0.5570 C   0  0  2  0  0  0  0  0  0  0  0  0
   -1.3713   -1.9565    0.7311 C   0  0  0  0  0  0  0  0  0  0  0  0
    0.1443   -1.6751    0.9014 C   0  0  0  0  0  0  0  0  0  0  0  0
    0.7318   -0.7551   -0.2146 C   0  0  1  0  0  0  0  0  0  0  0  0
   -0.1273    0.5305   -0.4086 C   0  0  2  0  0  0  0  0  0  0  0  0
   -1.5886    0.1054   -0.6456 C   0  0  2  0  0  0  0  0  0  0  0  0
   -2.6336    1.1617   -0.9863 C   0  0  0  0  0  0  0  0  0  0  0  0
   -3.9761    0.4804   -0.6606 C   0  0  0  0  0  0  0  0  0  0  0  0
   -3.6270   -0.8406    0.0728 C   0  0  2  0  0  0  0  0  0  0  0  0
   -4.5300   -1.1753    1.1019 O   0  0  0  0  0  0  0  0  0  0  0  0
    0.4421    1.3296   -1.5871 C   0  0  0  0  0  0  0  0  0  0  0  0
    1.8398    1.8474   -1.2377 C   0  0  0  0  0  0  0  0  0  0  0  0
    2.7242    0.8100   -0.5794 C   0  0  0  0  0  0  0  0  0  0  0  0
    2.2040   -0.3891   -0.0171 C   0  0  0  0  0  0  0  0  0  0  0  0
    3.1073   -1.2964    0.5786 C   0  0  0  0  0  0  0  0  0  0  0  0
    4.4659   -0.9935    0.6809 C   0  0  0  0  0  0  0  0  0  0  0  0
    4.9611    0.2043    0.1703 C   0  0  0  0  0  0  0  0  0  0  0  0
    4.0926    1.1017   -0.4570 C   0  0  0  0  0  0  0  0  0  0  0  0
    6.3191    0.4925    0.2870 O   0  0  0  0  0  0  0  0  0  0  0  0
   -1.1378    0.4234    2.2318 H   0  0  0  0  0  0  0  0  0  0  0  0
   -2.7275    1.1138    1.8011 H   0  0  0  0  0  0  0  0  0  0  0  0
   -2.6151   -0.4308    2.7070 H   0  0  0  0  0  0  0  0  0  0  0  0
   -1.5114   -2.6109   -0.1578 H   0  0  0  0  0  0  0  0  0  0  0  0
   -1.7453   -2.5189    1.6141 H   0  0  0  0  0  0  0  0  0  0  0  0
    0.6445   -2.6649    0.8716 H   0  0  0  0  0  0  0  0  0  0  0  0
    0.3466   -1.2362    1.9007 H   0  0  0  0  0  0  0  0  0  0  0  0
    0.6881   -1.3447   -1.1586 H   0  0  0  0  0  0  0  0  0  0  0  0
   -0.0620    1.1772    0.4916 H   0  0  0  0  0  0  0  0  0  0  0  0
   -1.5734   -0.5850   -1.5261 H   0  0  0  0  0  0  0  0  0  0  0  0
   -2.4911    2.0700   -0.3611 H   0  0  0  0  0  0  0  0  0  0  0  0
   -2.5821    1.4462   -2.0599 H   0  0  0  0  0  0  0  0  0  0  0  0
   -4.5380    0.2601   -1.5944 H   0  0  0  0  0  0  0  0  0  0  0  0
   -4.5925    1.1590   -0.0322 H   0  0  0  0  0  0  0  0  0  0  0  0
   -3.6558   -1.6636   -0.6769 H   0  0  0  0  0  0  0  0  0  0  0  0
   -4.7593   -0.3536    1.6075 H   0  0  0  0  0  0  0  0  0  0  0  0
   -0.2068    2.2026   -1.8139 H   0  0  0  0  0  0  0  0  0  0  0  0
    0.4924    0.6938   -2.4989 H   0  0  0  0  0  0  0  0  0  0  0  0
    2.3228    2.2169   -2.1686 H   0  0  0  0  0  0  0  0  0  0  0  0
    1.7404    2.7100   -0.5431 H   0  0  0  0  0  0  0  0  0  0  0  0
    2.7816   -2.2495    0.9650 H   0  0  0  0  0  0  0  0  0  0  0  0
    5.1386   -1.6984    1.1531 H   0  0  0  0  0  0  0  0  0  0  0  0
    4.4849    2.0307   -0.8534 H   0  0  0  0  0  0  0  0  0  0  0  0
    6.7111    1.3540   -0.0750 H   0  0  0  0  0  0  0  0  0  0  0  0
  2  1  1  1
  2  3  1  0
  3  4  1  0
  4  5  1  0
  5  6  1  0
  6  7  1  0
  7  8  1  0
  8  9  1  0
  9 10  1  0
 10 11  1  0
  6 12  1  0
 12 13  1  0
 13 14  1  0
 14 15  2  0
 15 16  1  0
 16 17  2  0
 17 18  1  0
 18 19  2  0
 18 20  1  0
  7  2  1  0
 10  2  1  0
 15  5  1  0
 19 14  1  0
  1 21  1  0
  1 22  1  0
  1 23  1  0
  3 24  1  0
  3 25  1  0
  4 26  1  0
  4 27  1  0
  5 28  1  6
  6 29  1  1
  7 30  1  6
  8 31  1  0
  8 32  1  0
  9 33  1  0
  9 34  1  0
 10 35  1  6
 11 36  1  0
 12 37  1  0
 12 38  1  0
 13 39  1  0
 13 40  1  0
 16 41  1  0
 17 42  1  0
 19 43  1  0
 20 44  1  0
M  END
$$$$

     RDKit          3D

 44 47  0  0  0  0  0  0  0  0999 V2000
   -2.3465    1.6434    0.2075 C   0  0  0  0  0  0  0  0  0  0  0  0
   -2.2853    0.0865    0.3412 C   0  0  2  0  0  0  0  0  0  0  0  0
   -1.7170   -0.3007    1.7231 C   0  0  0  0  0  0  0  0  0  0  0  0
   -0.2173    0.0740    1.8462 C   0  0  0  0  0  0  0  0  0  0  0  0
    0.6528   -0.4647    0.6674 C   0  0  1  0  0  0  0  0  0  0  0  0
    0.0282   -0.1069   -0.7145 C   0  0  2  0  0  0  0  0  0  0  0  0
   -1.4298   -0.6027   -0.7304 C   0  0  2  0  0  0  0  0  0  0  0  0
   -2.2488   -0.4855   -2.0092 C   0  0  0  0  0  0  0  0  0  0  0  0
   -3.7078   -0.5755   -1.5257 C   0  0  0  0  0  0  0  0  0  0  0  0
   -3.6674   -0.5148    0.0185 C   0  0  2  0  0  0  0  0  0  0  0  0
   -4.7211    0.2572    0.5350 O   0  0  0  0  0  0  0  0  0  0  0  0
    0.8722   -0.7549   -1.8189 C   0  0  0  0  0  0  0  0  0  0  0  0
    2.2653   -0.1206   -1.8484 C   0  0  0  0  0  0  0  0  0  0  0  0
    2.8845    0.0471   -0.4773 C   0  0  0  0  0  0  0  0  0  0  0  0
    2.1191   -0.0315    0.7196 C   0  0  0  0  0  0  0  0  0  0  0  0
    2.7851    0.1405    1.9529 C   0  0  0  0  0  0  0  0  0  0  0  0
    4.1445    0.4537    1.9969 C   0  0  0  0  0  0  0  0  0  0  0  0
    4.8777    0.5762    0.8153 C   0  0  0  0  0  0  0  0  0  0  0  0
    4.2489    0.3737   -0.4128 C   0  0  0  0  0  0  0  0  0  0  0  0
    6.2336    0.8946    0.8501 O   0  0  0  0  0  0  0  0  0  0  0  0
   -3.0041    2.0678    0.9957 H   0  0  0  0  0  0  0  0  0  0  0  0
   -2.7550    1.9583   -0.7746 H   0  0  0  0  0  0  0  0  0  0  0  0
   -1.3617    2.1308    0.3305 H   0  0  0  0  0  0  0  0  0  0  0  0
   -2.2929    0.2057    2.5281 H   0  0  0  0  0  0  0  0  0  0  0  0
   -1.8219   -1.3967    1.8845 H   0  0  0  0  0  0  0  0  0  0  0  0
    0.1315   -0.3690    2.8016 H   0  0  0  0  0  0  0  0  0  0  0  0
   -0.0993    1.1744    1.9329 H   0  0  0  0  0  0  0  0  0  0  0  0
    0.6587   -1.5742    0.7666 H   0  0  0  0  0  0  0  0  0  0  0  0
    0.0567    0.9911   -0.8772 H   0  0  0  0  0  0  0  0  0  0  0  0
   -1.3914   -1.6981   -0.5053 H   0  0  0  0  0  0  0  0  0  0  0  0
   -2.0114   -1.3111   -2.7151 H   0  0  0  0  0  0  0  0  0  0  0  0
   -2.0590    0.4890   -2.5098 H   0  0  0  0  0  0  0  0  0  0  0  0
   -4.2946    0.2725   -1.9424 H   0  0  0  0  0  0  0  0  0  0  0  0
   -4.1732   -1.5288   -1.8584 H   0  0  0  0  0  0  0  0  0  0  0  0
   -3.7289   -1.5526    0.4258 H   0  0  0  0  0  0  0  0  0  0  0  0
   -5.5506   -0.2696    0.3943 H   0  0  0  0  0  0  0  0  0  0  0  0
    0.3973   -0.6007   -2.8114 H   0  0  0  0  0  0  0  0  0  0  0  0
    0.9603   -1.8508   -1.6474 H   0  0  0  0  0  0  0  0  0  0  0  0
    2.9262   -0.7486   -2.4851 H   0  0  0  0  0  0  0  0  0  0  0  0
    2.1935    0.8828   -2.3222 H   0  0  0  0  0  0  0  0  0  0  0  0
    2.2714    0.0293    2.8950 H   0  0  0  0  0  0  0  0  0  0  0  0
    4.6297    0.5933    2.9546 H   0  0  0  0  0  0  0  0  0  0  0  0
    4.8280    0.4696   -1.3237 H   0  0  0  0  0  0  0  0  0  0  0  0
    6.7198    1.0466    1.7262 H   0  0  0  0  0  0  0  0  0  0  0  0
  2  1  1  6
  2  3  1  0
  3  4  1  0
  4  5  1  0
  5  6  1  0
  6  7  1  0
  7  8  1  0
  8  9  1  0
  9 10  1  0
 10 11  1  0
  6 12  1  0
 12 13  1  0
 13 14  1  0
 14 15  2  0
 15 16  1  0
 16 17  2  0
 17 18  1  0
 18 19  2  0
 18 20  1  0
  7  2  1  0
 10  2  1  0
 15  5  1  0
 19 14  1  0
  1 21  1  0
  1 22  1  0
  1 23  1  0
  3 24  1  0
  3 25  1  0
  4 26  1  0
  4 27  1  0
  5 28  1  1
  6 29  1  6
  7 30  1  1
  8 31  1  0
  8 32  1  0
  9 33  1  0
  9 34  1  0
 10 35  1  1
 11 36  1  0
 12 37  1  0
 12 38  1  0
 13 39  1  0
 13 40  1  0
 16 41  1  0
 17 42  1  0
 19 43  1  0
 20 44  1  0
M  END
$$$$

     RDKit          3D

 44 47  0  0  0  0  0  0  0  0999 V2000
   -2.1920    1.7025   -0.7619 C   0  0  0  0  0  0  0  0  0  0  0  0
   -2.2148    0.6307    0.3750 C   0  0  2  0  0  0  0  0  0  0  0  0
   -1.4726    1.1674    1.6177 C   0  0  0  0  0  0  0  0  0  0  0  0
    0.0496    1.3058    1.3553 C   0  0  0  0  0  0  0  0  0  0  0  0
    0.6993    0.0066    0.7834 C   0  0  1  0  0  0  0  0  0  0  0  0
   -0.0999   -0.5453   -0.4351 C   0  0  2  0  0  0  0  0  0  0  0  0
   -1.5726   -0.7086   -0.0147 C   0  0  2  0  0  0  0  0  0  0  0  0
   -2.5642   -1.3477   -0.9802 C   0  0  0  0  0  0  0  0  0  0  0  0
   -3.9411   -0.8973   -0.4569 C   0  0  0  0  0  0  0  0  0  0  0  0
   -3.6643    0.1679    0.6356 C   0  0  2  0  0  0  0  0  0  0  0  0
   -4.6024    1.2196    0.6548 O   0  0  0  0  0  0  0  0  0  0  0  0
    0.5279   -1.8736   -0.8746 C   0  0  0  0  0  0  0  0  0  0  0  0
    1.9387   -1.6282   -1.4163 C   0  0  0  0  0  0  0  0  0  0  0  0
    2.7639   -0.6930   -0.5584 C   0  0  0  0  0  0  0  0  0  0  0  0
    2.1813    0.1477    0.4308 C   0  0  0  0  0  0  0  0  0  0  0  0
    3.0323    0.9890    1.1804 C   0  0  0  0  0  0  0  0  0  0  0  0
    4.4001    1.0512    0.9096 C   0  0  0  0  0  0  0  0  0  0  0  0
    4.9561    0.2576   -0.0953 C   0  0  0  0  0  0  0  0  0  0  0  0
    4.1405   -0.6082   -0.8233 C   0  0  0  0  0  0  0  0  0  0  0  0
    6.3193    0.3182   -0.3760 O   0  0  0  0  0  0  0  0  0  0  0  0
   -2.6921    2.6327   -0.4181 H   0  0  0  0  0  0  0  0  0  0  0  0
   -1.1700    1.9971   -1.0638 H   0  0  0  0  0  0  0  0  0  0  0  0
   -2.7194    1.3500   -1.6722 H   0  0  0  0  0  0  0  0  0  0  0  0
   -1.6215    0.4774    2.4779 H   0  0  0  0  0  0  0  0  0  0  0  0
   -1.8890    2.1547    1.9138 H   0  0  0  0  0  0  0  0  0  0  0  0
    0.2491    2.1607    0.6758 H   0  0  0  0  0  0  0  0  0  0  0  0
    0.5078    1.5528    2.3350 H   0  0  0  0  0  0  0  0  0  0  0  0
    0.6507   -0.7503    1.5992 H   0  0  0  0  0  0  0  0  0  0  0  0
   -0.0263    0.1551   -1.2935 H   0  0  0  0  0  0  0  0  0  0  0  0
   -1.5680   -1.3760    0.8834 H   0  0  0  0  0  0  0  0  0  0  0  0
   -2.3965   -0.9788   -2.0155 H   0  0  0  0  0  0  0  0  0  0  0  0
   -2.4778   -2.4562   -0.9695 H   0  0  0  0  0  0  0  0  0  0  0  0
   -4.5413   -0.4891   -1.2986 H   0  0  0  0  0  0  0  0  0  0  0  0
   -4.4919   -1.7579   -0.0183 H   0  0  0  0  0  0  0  0  0  0  0  0
   -3.7121   -0.3400    1.6256 H   0  0  0  0  0  0  0  0  0  0  0  0
   -4.8072    1.4841   -0.2786 H   0  0  0  0  0  0  0  0  0  0  0  0
    0.5706   -2.5844   -0.0195 H   0  0  0  0  0  0  0  0  0  0  0  0
   -0.0782   -2.3422   -1.6794 H   0  0  0  0  0  0  0  0  0  0  0  0
    1.8613   -1.1880   -2.4344 H   0  0  0  0  0  0  0  0  0  0  0  0
    2.4567   -2.6076   -1.5101 H   0  0  0  0  0  0  0  0  0  0  0  0
    2.6582    1.6016    1.9857 H   0  0  0  0  0  0  0  0  0  0  0  0
    5.0299    1.7137    1.4899 H   0  0  0  0  0  0  0  0  0  0  0  0
    4.5828   -1.2209   -1.6000 H   0  0  0  0  0  0  0  0  0  0  0  0
    6.9387    0.9358    0.1356 H   0  0  0  0  0  0  0  0  0  0  0  0
  2  1  1  6
  2  3  1  0
  3  4  1  0
  4  5  1  0
  5  6  1  0
  6  7  1  0
  7  8  1  0
  8  9  1  0
  9 10  1  0
 10 11  1  0
  6 12  1  0
 12 13  1  0
 13 14  1  0
 14 15  2  0
 15 16  1  0
 16 17  2  0
 17 18  1  0
 18 19  2  0
 18 20  1  0
  7  2  1  0
 10  2  1  0
 15  5  1  0
 19 14  1  0
  1 21  1  0
  1 22  1  0
  1 23  1  0
  3 24  1  0
  3 25  1  0
  4 26  1  0
  4 27  1  0
  5 28  1  1
  6 29  1  6
  7 30  1  1
  8 31  1  0
  8 32  1  0
  9 33  1  0
  9 34  1  0
 10 35  1  1
 11 36  1  0
 12 37  1  0
 12 38  1  0
 13 39  1  0
 13 40  1  0
 16 41  1  0
 17 42  1  0
 19 43  1  0
 20 44  1  0
M  END
$$$$

     RDKit          3D

 44 47  0  0  0  0  0  0  0  0999 V2000
   -2.1149   -0.7577    1.9137 C   0  0  0  0  0  0  0  0  0  0  0  0
   -2.2290   -0.6150    0.3609 C   0  0  2  0  0  0  0  0  0  0  0  0
   -1.5679   -1.8272   -0.3293 C   0  0  0  0  0  0  0  0  0  0  0  0
   -0.0291   -1.8212   -0.1374 C   0  0  0  0  0  0  0  0  0  0  0  0
    0.6382   -0.4672   -0.5347 C   0  0  1  0  0  0  0  0  0  0  0  0
   -0.0823    0.7426    0.1326 C   0  0  2  0  0  0  0  0  0  0  0  0
   -1.5829    0.6575   -0.2028 C   0  0  2  0  0  0  0  0  0  0  0  0
   -2.5136    1.7834    0.2278 C   0  0  0  0  0  0  0  0  0  0  0  0
   -3.9129    1.1417    0.1961 C   0  0  0  0  0  0  0  0  0  0  0  0
   -3.7022   -0.3709   -0.0291 C   0  0  2  0  0  0  0  0  0  0  0  0
   -4.6074   -1.1217    0.7388 O   0  0  0  0  0  0  0  0  0  0  0  0
    0.5538    2.0395   -0.3823 C   0  0  0  0  0  0  0  0  0  0  0  0
    2.0025    2.1366    0.1032 C   0  0  0  0  0  0  0  0  0  0  0  0
    2.7804    0.8468   -0.0478 C   0  0  0  0  0  0  0  0  0  0  0  0
    2.1434   -0.4063   -0.2682 C   0  0  0  0  0  0  0  0  0  0  0  0
    2.9532   -1.5562   -0.3943 C   0  0  0  0  0  0  0  0  0  0  0  0
    4.3374   -1.4803   -0.2329 C   0  0  0  0  0  0  0  0  0  0  0  0
    4.9498   -0.2539    0.0308 C   0  0  0  0  0  0  0  0  0  0  0  0
    4.1734    0.9010    0.1224 C   0  0  0  0  0  0  0  0  0  0  0  0
    6.3302   -0.1704    0.1993 O   0  0  0  0  0  0  0  0  0  0  0  0
   -2.6298   -1.6826    2.2501 H   0  0  0  0  0  0  0  0  0  0  0  0
   -2.5835    0.0975    2.4428 H   0  0  0  0  0  0  0  0  0  0  0  0
   -1.0708   -0.8378    2.2686 H   0  0  0  0  0  0  0  0  0  0  0  0
   -1.9871   -2.7736    0.0762 H   0  0  0  0  0  0  0  0  0  0  0  0
   -1.7891   -1.8111   -1.4197 H   0  0  0  0  0  0  0  0  0  0  0  0
    0.2309   -2.0791    0.9105 H   0  0  0  0  0  0  0  0  0  0  0  0
    0.3630   -2.6348   -0.7818 H   0  0  0  0  0  0  0  0  0  0  0  0
    0.5196   -0.3736   -1.6383 H   0  0  0  0  0  0  0  0  0  0  0  0
    0.0618    0.7171    1.2333 H   0  0  0  0  0  0  0  0  0  0  0  0
   -1.6540    0.6286   -1.3190 H   0  0  0  0  0  0  0  0  0  0  0  0
   -2.4541    2.6440   -0.4737 H   0  0  0  0  0  0  0  0  0  0  0  0
   -2.2624    2.1305    1.2538 H   0  0  0  0  0  0  0  0  0  0  0  0
   -4.4348    1.3329    1.1596 H   0  0  0  0  0  0  0  0  0  0  0  0
   -4.5220    1.5708   -0.6292 H   0  0  0  0  0  0  0  0  0  0  0  0
   -3.8576   -0.5898   -1.1129 H   0  0  0  0  0  0  0  0  0  0  0  0
   -4.5376   -2.0582    0.4173 H   0  0  0  0  0  0  0  0  0  0  0  0
   -0.0021    2.9227   -0.0008 H   0  0  0  0  0  0  0  0  0  0  0  0
    0.5257    2.0707   -1.4942 H   0  0  0  0  0  0  0  0  0  0  0  0
    2.5103    2.9499   -0.4600 H   0  0  0  0  0  0  0  0  0  0  0  0
    2.0031    2.4188    1.1787 H   0  0  0  0  0  0  0  0  0  0  0  0
    2.5333   -2.5228   -0.6249 H   0  0  0  0  0  0  0  0  0  0  0  0
    4.9356   -2.3785   -0.3217 H   0  0  0  0  0  0  0  0  0  0  0  0
    4.6593    1.8480    0.3257 H   0  0  0  0  0  0  0  0  0  0  0  0
    6.9220   -0.9907    0.1376 H   0  0  0  0  0  0  0  0  0  0  0  0
  2  1  1  1
  2  3  1  0
  3  4  1  0
  4  5  1  0
  5  6  1  0
  6  7  1  0
  7  8  1  0
  8  9  1  0
  9 10  1  0
 10 11  1  0
  6 12  1  0
 12 13  1  0
 13 14  1  0
 14 15  2  0
 15 16  1  0
 16 17  2  0
 17 18  1  0
 18 19  2  0
 18 20  1  0
  7  2  1  0
 10  2  1  0
 15  5  1  0
 19 14  1  0
  1 21  1  0
  1 22  1  0
  1 23  1  0
  3 24  1  0
  3 25  1  0
  4 26  1  0
  4 27  1  0
  5 28  1  6
  6 29  1  1
  7 30  1  6
  8 31  1  0
  8 32  1  0
  9 33  1  0
  9 34  1  0
 10 35  1  6
 11 36  1  0
 12 37  1  0
 12 38  1  0
 13 39  1  0
 13 40  1  0
 16 41  1  0
 17 42  1  0
 19 43  1  0
 20 44  1  0
M  END
$$$$

     RDKit          3D

 44 47  0  0  0  0  0  0  0  0999 V2000
   -2.4666    0.5346   -1.3881 C   0  0  0  0  0  0  0  0  0  0  0  0
   -2.2944    0.4025    0.1594 C   0  0  2  0  0  0  0  0  0  0  0  0
   -1.6757    1.6961    0.7313 C   0  0  0  0  0  0  0  0  0  0  0  0
   -0.2053    1.8747    0.2719 C   0  0  0  0  0  0  0  0  0  0  0  0
    0.6822    0.6179    0.5360 C   0  0  1  0  0  0  0  0  0  0  0  0
    0.0102   -0.6813   -0.0014 C   0  0  2  0  0  0  0  0  0  0  0  0
   -1.4079   -0.7743    0.5922 C   0  0  2  0  0  0  0  0  0  0  0  0
   -2.2541   -2.0146    0.3285 C   0  0  0  0  0  0  0  0  0  0  0  0
   -3.6950   -1.5552    0.6208 C   0  0  0  0  0  0  0  0  0  0  0  0
   -3.6321   -0.0168    0.8058 C   0  0  2  0  0  0  0  0  0  0  0  0
   -4.7521    0.6643    0.2881 O   0  0  0  0  0  0  0  0  0  0  0  0
    0.8809   -1.8825    0.3872 C   0  0  0  0  0  0  0  0  0  0  0  0
    2.2236   -1.8102   -0.3447 C   0  0  0  0  0  0  0  0  0  0  0  0
    2.8512   -0.4327   -0.3267 C   0  0  0  0  0  0  0  0  0  0  0  0
    2.1133    0.7368    0.0083 C   0  0  0  0  0  0  0  0  0  0  0  0
    2.7846    1.9790   -0.0050 C   0  0  0  0  0  0  0  0  0  0  0  0
    4.1178    2.0699   -0.4078 C   0  0  0  0  0  0  0  0  0  0  0  0
    4.8208    0.9264   -0.7803 C   0  0  0  0  0  0  0  0  0  0  0  0
    4.1888   -0.3194   -0.7397 C   0  0  0  0  0  0  0  0  0  0  0  0
    6.1491    1.0371   -1.1855 O   0  0  0  0  0  0  0  0  0  0  0  0
   -1.5166    0.7329   -1.9178 H   0  0  0  0  0  0  0  0  0  0  0  0
   -2.9114   -0.3791   -1.8334 H   0  0  0  0  0  0  0  0  0  0  0  0
   -3.1359    1.3887   -1.6250 H   0  0  0  0  0  0  0  0  0  0  0  0
   -2.2733    2.5778    0.4128 H   0  0  0  0  0  0  0  0  0  0  0  0
   -1.6976    1.6696    1.8435 H   0  0  0  0  0  0  0  0  0  0  0  0
    0.1911    2.7390    0.8434 H   0  0  0  0  0  0  0  0  0  0  0  0
   -0.1662    2.1478   -0.8034 H   0  0  0  0  0  0  0  0  0  0  0  0
    0.7718    0.5276    1.6426 H   0  0  0  0  0  0  0  0  0  0  0  0
   -0.0438   -0.6572   -1.1101 H   0  0  0  0  0  0  0  0  0  0  0  0
   -1.2836   -0.7366    1.7036 H   0  0  0  0  0  0  0  0  0  0  0  0
   -2.1518   -2.3412   -0.7294 H   0  0  0  0  0  0  0  0  0  0  0  0
   -1.9598   -2.8516    0.9986 H   0  0  0  0  0  0  0  0  0  0  0  0
   -4.0762   -2.0348    1.5487 H   0  0  0  0  0  0  0  0  0  0  0  0
   -4.3555   -1.8498   -0.2231 H   0  0  0  0  0  0  0  0  0  0  0  0
   -3.5900    0.1928    1.8988 H   0  0  0  0  0  0  0  0  0  0  0  0
   -4.9967    0.2627   -0.5849 H   0  0  0  0  0  0  0  0  0  0  0  0
    1.0511   -1.8990    1.4867 H   0  0  0  0  0  0  0  0  0  0  0  0
    0.3799   -2.8330    0.1041 H   0  0  0  0  0  0  0  0  0  0  0  0
    2.9180   -2.5457    0.1171 H   0  0  0  0  0  0  0  0  0  0  0  0
    2.0716   -2.1087   -1.4051 H   0  0  0  0  0  0  0  0  0  0  0  0
    2.2958    2.8911    0.3001 H   0  0  0  0  0  0  0  0  0  0  0  0
    4.6092    3.0347   -0.4226 H   0  0  0  0  0  0  0  0  0  0  0  0
    4.7421   -1.2049   -1.0292 H   0  0  0  0  0  0  0  0  0  0  0  0
    6.6886    0.2249   -1.4613 H   0  0  0  0  0  0  0  0  0  0  0  0
  2  1  1  6
  2  3  1  0
  3  4  1  0
  4  5  1  0
  5  6  1  0
  6  7  1  0
  7  8  1  0
  8  9  1  0
  9 10  1  0
 10 11  1  0
  6 12  1  0
 12 13  1  0
 13 14  1  0
 14 15  2  0
 15 16  1  0
 16 17  2  0
 17 18  1  0
 18 19  2  0
 18 20  1  0
  7  2  1  0
 10  2  1  0
 15  5  1  0
 19 14  1  0
  1 21  1  0
  1 22  1  0
  1 23  1  0
  3 24  1  0
  3 25  1  0
  4 26  1  0
  4 27  1  0
  5 28  1  1
  6 29  1  6
  7 30  1  1
  8 31  1  0
  8 32  1  0
  9 33  1  0
  9 34  1  0
 10 35  1  1
 11 36  1  0
 12 37  1  0
 12 38  1  0
 13 39  1  0
 13 40  1  0
 16 41  1  0
 17 42  1  0
 19 43  1  0
 20 44  1  0
M  END
$$$$

     RDKit          3D

 44 47  0  0  0  0  0  0  0  0999 V2000
   -2.3977   -1.4588   -0.1040 C   0  0  0  0  0  0  0  0  0  0  0  0
   -2.2811    0.0488   -0.4984 C   0  0  2  0  0  0  0  0  0  0  0  0
   -1.6305    0.1783   -1.8923 C   0  0  0  0  0  0  0  0  0  0  0  0
   -0.1400   -0.2494   -1.8663 C   0  0  0  0  0  0  0  0  0  0  0  0
    0.6879    0.4612   -0.7498 C   0  0  1  0  0  0  0  0  0  0  0  0
   -0.0173    0.3638    0.6364 C   0  0  2  0  0  0  0  0  0  0  0  0
   -1.4565    0.8912    0.4858 C   0  0  2  0  0  0  0  0  0  0  0  0
   -2.3422    1.0236    1.7195 C   0  0  0  0  0  0  0  0  0  0  0  0
   -3.7724    1.0806    1.1504 C   0  0  0  0  0  0  0  0  0  0  0  0
   -3.6546    0.7393   -0.3577 C   0  0  2  0  0  0  0  0  0  0  0  0
   -4.7294   -0.0262   -0.8530 O   0  0  0  0  0  0  0  0  0  0  0  0
    0.7920    1.1720    1.6580 C   0  0  0  0  0  0  0  0  0  0  0  0
    2.1596    0.5182    1.8728 C   0  0  0  0  0  0  0  0  0  0  0  0
    2.8404    0.0988    0.5874 C   0  0  0  0  0  0  0  0  0  0  0  0
    2.1389   -0.0124   -0.6456 C   0  0  0  0  0  0  0  0  0  0  0  0
    2.8591   -0.4137   -1.7920 C   0  0  0  0  0  0  0  0  0  0  0  0
    4.2072   -0.7647   -1.7062 C   0  0  0  0  0  0  0  0  0  0  0  0
    4.8760   -0.6990   -0.4859 C   0  0  0  0  0  0  0  0  0  0  0  0
    4.1941   -0.2690    0.6556 C   0  0  0  0  0  0  0  0  0  0  0  0
    6.2201   -1.0591   -0.4181 O   0  0  0  0  0  0  0  0  0  0  0  0
   -2.8637   -1.5895    0.8943 H   0  0  0  0  0  0  0  0  0  0  0  0
   -3.0245   -1.9986   -0.8452 H   0  0  0  0  0  0  0  0  0  0  0  0
   -1.4239   -1.9820   -0.0866 H   0  0  0  0  0  0  0  0  0  0  0  0
   -2.1820   -0.4444   -2.6300 H   0  0  0  0  0  0  0  0  0  0  0  0
   -1.6894    1.2323   -2.2440 H   0  0  0  0  0  0  0  0  0  0  0  0
   -0.0553   -1.3510   -1.7587 H   0  0  0  0  0  0  0  0  0  0  0  0
    0.2715    0.0145   -2.8622 H   0  0  0  0  0  0  0  0  0  0  0  0
    0.7380    1.5364   -1.0365 H   0  0  0  0  0  0  0  0  0  0  0  0
   -0.0343   -0.6895    0.9870 H   0  0  0  0  0  0  0  0  0  0  0  0
   -1.3669    1.9292    0.0778 H   0  0  0  0  0  0  0  0  0  0  0  0
   -2.1032    1.9487    2.2881 H   0  0  0  0  0  0  0  0  0  0  0  0
   -2.2187    0.1431    2.3870 H   0  0  0  0  0  0  0  0  0  0  0  0
   -4.4165    0.3570    1.6954 H   0  0  0  0  0  0  0  0  0  0  0  0
   -4.2023    2.0981    1.2779 H   0  0  0  0  0  0  0  0  0  0  0  0
   -3.6397    1.6986   -0.9233 H   0  0  0  0  0  0  0  0  0  0  0  0
   -4.9613   -0.7228   -0.1865 H   0  0  0  0  0  0  0  0  0  0  0  0
    0.2632    1.2037    2.6346 H   0  0  0  0  0  0  0  0  0  0  0  0
    0.9257    2.2192    1.3063 H   0  0  0  0  0  0  0  0  0  0  0  0
    2.0303   -0.3853    2.5080 H   0  0  0  0  0  0  0  0  0  0  0  0
    2.8089    1.2307    2.4269 H   0  0  0  0  0  0  0  0  0  0  0  0
    2.3972   -0.4554   -2.7660 H   0  0  0  0  0  0  0  0  0  0  0  0
    4.7367   -1.0819   -2.5958 H   0  0  0  0  0  0  0  0  0  0  0  0
    4.7210   -0.2188    1.6011 H   0  0  0  0  0  0  0  0  0  0  0  0
    6.7356   -1.0212    0.4535 H   0  0  0  0  0  0  0  0  0  0  0  0
  2  1  1  1
  2  3  1  0
  3  4  1  0
  4  5  1  0
  5  6  1  0
  6  7  1  0
  7  8  1  0
  8  9  1  0
  9 10  1  0
 10 11  1  0
  6 12  1  0
 12 13  1  0
 13 14  1  0
 14 15  2  0
 15 16  1  0
 16 17  2  0
 17 18  1  0
 18 19  2  0
 18 20  1  0
  7  2  1  0
 10  2  1  0
 15  5  1  0
 19 14  1  0
  1 21  1  0
  1 22  1  0
  1 23  1  0
  3 24  1  0
  3 25  1  0
  4 26  1  0
  4 27  1  0
  5 28  1  6
  6 29  1  1
  7 30  1  6
  8 31  1  0
  8 32  1  0
  9 33  1  0
  9 34  1  0
 10 35  1  6
 11 36  1  0
 12 37  1  0
 12 38  1  0
 13 39  1  0
 13 40  1  0
 16 41  1  0
 17 42  1  0
 19 43  1  0
 20 44  1  0
M  END
$$$$

     RDKit          3D

 44 47  0  0  0  0  0  0  0  0999 V2000
   -2.5081    1.4691   -0.2526 C   0  0  0  0  0  0  0  0  0  0  0  0
   -2.1450    0.4208    0.8479 C   0  0  2  0  0  0  0  0  0  0  0  0
   -1.2325    1.0699    1.9107 C   0  0  0  0  0  0  0  0  0  0  0  0
    0.1663    1.4052    1.3311 C   0  0  0  0  0  0  0  0  0  0  0  0
    0.8457    0.1954    0.6157 C   0  0  1  0  0  0  0  0  0  0  0  0
   -0.1148   -0.4759   -0.4115 C   0  0  2  0  0  0  0  0  0  0  0  0
   -1.4286   -0.8270    0.3115 C   0  0  2  0  0  0  0  0  0  0  0  0
   -2.5096   -1.6065   -0.4286 C   0  0  0  0  0  0  0  0  0  0  0  0
   -3.7904   -1.3352    0.3830 C   0  0  0  0  0  0  0  0  0  0  0  0
   -3.4307   -0.2264    1.4058 C   0  0  2  0  0  0  0  0  0  0  0  0
   -4.4742    0.6916    1.6396 O   0  0  0  0  0  0  0  0  0  0  0  0
    0.5756   -1.7156   -0.9933 C   0  0  0  0  0  0  0  0  0  0  0  0
    1.7927   -1.2932   -1.8204 C   0  0  0  0  0  0  0  0  0  0  0  0
    2.6503   -0.2439   -1.1458 C   0  0  0  0  0  0  0  0  0  0  0  0
    2.1859    0.5267   -0.0434 C   0  0  0  0  0  0  0  0  0  0  0  0
    3.0578    1.4847    0.5186 C   0  0  0  0  0  0  0  0  0  0  0  0
    4.3155    1.7239   -0.0372 C   0  0  0  0  0  0  0  0  0  0  0  0
    4.7445    0.9962   -1.1486 C   0  0  0  0  0  0  0  0  0  0  0  0
    3.9147    0.0190   -1.6975 C   0  0  0  0  0  0  0  0  0  0  0  0
    5.9959    1.2330   -1.7132 O   0  0  0  0  0  0  0  0  0  0  0  0
   -1.6227    1.8922   -0.7618 H   0  0  0  0  0  0  0  0  0  0  0  0
   -3.0423    2.3297    0.2030 H   0  0  0  0  0  0  0  0  0  0  0  0
   -3.1661    1.0361   -1.0340 H   0  0  0  0  0  0  0  0  0  0  0  0
   -1.7035    1.9975    2.3026 H   0  0  0  0  0  0  0  0  0  0  0  0
   -1.1012    0.3792    2.7732 H   0  0  0  0  0  0  0  0  0  0  0  0
    0.1006    2.2688    0.6366 H   0  0  0  0  0  0  0  0  0  0  0  0
    0.7862    1.7256    2.1937 H   0  0  0  0  0  0  0  0  0  0  0  0
    1.0734   -0.5490    1.4124 H   0  0  0  0  0  0  0  0  0  0  0  0
   -0.3199    0.2151   -1.2560 H   0  0  0  0  0  0  0  0  0  0  0  0
   -1.1437   -1.4744    1.1786 H   0  0  0  0  0  0  0  0  0  0  0  0
   -2.2764   -2.6934   -0.4520 H   0  0  0  0  0  0  0  0  0  0  0  0
   -2.6174   -1.2342   -1.4706 H   0  0  0  0  0  0  0  0  0  0  0  0
   -4.1154   -2.2546    0.9172 H   0  0  0  0  0  0  0  0  0  0  0  0
   -4.6052   -1.0229   -0.3053 H   0  0  0  0  0  0  0  0  0  0  0  0
   -3.1980   -0.7212    2.3760 H   0  0  0  0  0  0  0  0  0  0  0  0
   -4.9070    0.9126    0.7752 H   0  0  0  0  0  0  0  0  0  0  0  0
   -0.1207   -2.2724   -1.6564 H   0  0  0  0  0  0  0  0  0  0  0  0
    0.8939   -2.4015   -0.1770 H   0  0  0  0  0  0  0  0  0  0  0  0
    1.4418   -0.8825   -2.7924 H   0  0  0  0  0  0  0  0  0  0  0  0
    2.4042   -2.1964   -2.0362 H   0  0  0  0  0  0  0  0  0  0  0  0
    2.7863    2.0543    1.3937 H   0  0  0  0  0  0  0  0  0  0  0  0
    4.9610    2.4728    0.4042 H   0  0  0  0  0  0  0  0  0  0  0  0
    4.2584   -0.5412   -2.5591 H   0  0  0  0  0  0  0  0  0  0  0  0
    6.6226    1.9350   -1.3373 H   0  0  0  0  0  0  0  0  0  0  0  0
  2  1  1  6
  2  3  1  0
  3  4  1  0
  4  5  1  0
  5  6  1  0
  6  7  1  0
  7  8  1  0
  8  9  1  0
  9 10  1  0
 10 11  1  0
  6 12  1  0
 12 13  1  0
 13 14  1  0
 14 15  2  0
 15 16  1  0
 16 17  2  0
 17 18  1  0
 18 19  2  0
 18 20  1  0
  7  2  1  0
 10  2  1  0
 15  5  1  0
 19 14  1  0
  1 21  1  0
  1 22  1  0
  1 23  1  0
  3 24  1  0
  3 25  1  0
  4 26  1  0
  4 27  1  0
  5 28  1  1
  6 29  1  6
  7 30  1  1
  8 31  1  0
  8 32  1  0
  9 33  1  0
  9 34  1  0
 10 35  1  1
 11 36  1  0
 12 37  1  0
 12 38  1  0
 13 39  1  0
 13 40  1  0
 16 41  1  0
 17 42  1  0
 19 43  1  0
 20 44  1  0
M  END
$$$$

     RDKit          3D

 44 47  0  0  0  0  0  0  0  0999 V2000
   -2.1520    1.1320   -1.5349 C   0  0  0  0  0  0  0  0  0  0  0  0
   -2.1842    0.7588   -0.0167 C   0  0  2  0  0  0  0  0  0  0  0  0
   -1.4242    1.8235    0.8027 C   0  0  0  0  0  0  0  0  0  0  0  0
    0.0986    1.7840    0.5123 C   0  0  0  0  0  0  0  0  0  0  0  0
    0.7187    0.3589    0.6589 C   0  0  1  0  0  0  0  0  0  0  0  0
   -0.0989   -0.7048   -0.1336 C   0  0  2  0  0  0  0  0  0  0  0  0
   -1.5717   -0.6107    0.3066 C   0  0  2  0  0  0  0  0  0  0  0  0
   -2.5809   -1.6183   -0.2282 C   0  0  0  0  0  0  0  0  0  0  0  0
   -3.9419   -0.9316   -0.0121 C   0  0  0  0  0  0  0  0  0  0  0  0
   -3.6411    0.5200    0.4264 C   0  0  2  0  0  0  0  0  0  0  0  0
   -4.5347    1.4337   -0.1567 O   0  0  0  0  0  0  0  0  0  0  0  0
    0.4999   -2.0899    0.1399 C   0  0  0  0  0  0  0  0  0  0  0  0
    1.9115   -2.1713   -0.4470 C   0  0  0  0  0  0  0  0  0  0  0  0
    2.7606   -0.9524   -0.1559 C   0  0  0  0  0  0  0  0  0  0  0  0
    2.2011    0.2777    0.2896 C   0  0  0  0  0  0  0  0  0  0  0  0
    3.0736    1.3610    0.5333 C   0  0  0  0  0  0  0  0  0  0  0  0
    4.4406    1.2539    0.2733 C   0  0  0  0  0  0  0  0  0  0  0  0
    4.9744    0.0577   -0.2094 C   0  0  0  0  0  0  0  0  0  0  0  0
    4.1370   -1.0371   -0.4219 C   0  0  0  0  0  0  0  0  0  0  0  0
    6.3368   -0.0557   -0.4773 O   0  0  0  0  0  0  0  0  0  0  0  0
   -2.6365    2.1186   -1.6950 H   0  0  0  0  0  0  0  0  0  0  0  0
   -1.1273    1.2208   -1.9407 H   0  0  0  0  0  0  0  0  0  0  0  0
   -2.6938    0.3885   -2.1550 H   0  0  0  0  0  0  0  0  0  0  0  0
   -1.5811    1.6503    1.8906 H   0  0  0  0  0  0  0  0  0  0  0  0
   -1.8194    2.8366    0.5718 H   0  0  0  0  0  0  0  0  0  0  0  0
    0.5678    2.4733    1.2441 H   0  0  0  0  0  0  0  0  0  0  0  0
    0.3100    2.1875   -0.5000 H   0  0  0  0  0  0  0  0  0  0  0  0
    0.6594    0.1035    1.7414 H   0  0  0  0  0  0  0  0  0  0  0  0
   -0.0172   -0.5184   -1.2251 H   0  0  0  0  0  0  0  0  0  0  0  0
   -1.5771   -0.7502    1.4168 H   0  0  0  0  0  0  0  0  0  0  0  0
   -2.4059   -1.8148   -1.3084 H   0  0  0  0  0  0  0  0  0  0  0  0
   -2.5256   -2.5776    0.3313 H   0  0  0  0  0  0  0  0  0  0  0  0
   -4.5250   -1.4556    0.7763 H   0  0  0  0  0  0  0  0  0  0  0  0
   -4.5258   -0.9488   -0.9586 H   0  0  0  0  0  0  0  0  0  0  0  0
   -3.7102    0.5865    1.5387 H   0  0  0  0  0  0  0  0  0  0  0  0
   -5.4124    1.2879    0.2834 H   0  0  0  0  0  0  0  0  0  0  0  0
    0.5344   -2.2886    1.2342 H   0  0  0  0  0  0  0  0  0  0  0  0
   -0.1207   -2.8813   -0.3323 H   0  0  0  0  0  0  0  0  0  0  0  0
    2.4094   -3.0808   -0.0455 H   0  0  0  0  0  0  0  0  0  0  0  0
    1.8360   -2.2866   -1.5504 H   0  0  0  0  0  0  0  0  0  0  0  0
    2.7168    2.2977    0.9321 H   0  0  0  0  0  0  0  0  0  0  0  0
    5.0873    2.1028    0.4563 H   0  0  0  0  0  0  0  0  0  0  0  0
    4.5622   -1.9613   -0.7951 H   0  0  0  0  0  0  0  0  0  0  0  0
    6.9717    0.7207   -0.3322 H   0  0  0  0  0  0  0  0  0  0  0  0
  2  1  1  6
  2  3  1  0
  3  4  1  0
  4  5  1  0
  5  6  1  0
  6  7  1  0
  7  8  1  0
  8  9  1  0
  9 10  1  0
 10 11  1  0
  6 12  1  0
 12 13  1  0
 13 14  1  0
 14 15  2  0
 15 16  1  0
 16 17  2  0
 17 18  1  0
 18 19  2  0
 18 20  1  0
  7  2  1  0
 10  2  1  0
 15  5  1  0
 19 14  1  0
  1 21  1  0
  1 22  1  0
  1 23  1  0
  3 24  1  0
  3 25  1  0
  4 26  1  0
  4 27  1  0
  5 28  1  1
  6 29  1  6
  7 30  1  1
  8 31  1  0
  8 32  1  0
  9 33  1  0
  9 34  1  0
 10 35  1  1
 11 36  1  0
 12 37  1  0
 12 38  1  0
 13 39  1  0
 13 40  1  0
 16 41  1  0
 17 42  1  0
 19 43  1  0
 20 44  1  0
M  END
$$$$
