REMARK  2 active torsions:
REMARK  status: ('A' for Active; 'I' for Inactive)
REMARK    1  A    between atoms: C_10  and  O_11 
REMARK    2  A    between atoms: C_18  and  O_20 
ROOT
HETATM    1  C   UNL     1      -2.346  -1.431   0.703  1.00  0.00     0.018 C 
HETATM    2  C   UNL     1      -2.267  -0.399  -0.468  1.00  0.00    -0.014 C 
HETATM    3  C   UNL     1      -1.588  -1.046  -1.693  1.00  0.00     0.013 C 
HETATM    4  C   UNL     1      -0.086  -1.329  -1.429  1.00  0.00     0.010 C 
HETATM    5  C   UNL     1       0.693  -0.084  -0.900  1.00  0.00     0.023 C 
HETATM    6  C   UNL     1      -0.041   0.584   0.301  1.00  0.00    -0.001 C 
HETATM    7  C   UNL     1      -1.492   0.881  -0.122  1.00  0.00     0.001 C 
HETATM    8  C   UNL     1      -2.409   1.647   0.824  1.00  0.00     0.008 C 
HETATM    9  C   UNL     1      -3.827   1.321   0.317  1.00  0.00     0.033 C 
HETATM   10  C   UNL     1      -3.664   0.199  -0.741  1.00  0.00     0.126 C 
HETATM   11  C   UNL     1       0.720   1.856   0.697  1.00  0.00     0.010 C 
HETATM   12  C   UNL     1       2.101   1.487   1.244  1.00  0.00     0.039 C 
HETATM   13  C   UNL     1       2.824   0.447   0.415  1.00  0.00    -0.049 A 
HETATM   14  C   UNL     1       2.155  -0.362  -0.545  1.00  0.00    -0.047 A 
HETATM   15  C   UNL     1       2.914  -1.308  -1.269  1.00  0.00     0.011 A 
HETATM   16  C   UNL     1       4.270  -1.499  -0.998  1.00  0.00     0.037 A 
HETATM   17  C   UNL     1       4.907  -0.734  -0.020  1.00  0.00     0.066 A 
HETATM   18  C   UNL     1       4.186   0.232   0.681  1.00  0.00     0.044 A 
ENDROOT
BRANCH  10  19
HETATM   19  O   UNL     1      -4.703  -0.753  -0.725  1.00  0.00    -0.395 OA
HETATM   20  H   UNL     1      -4.929  -0.966   0.217  1.00  0.00     0.210 HD
ENDBRANCH  10  19
BRANCH  17  21
HETATM   21  O   UNL     1       6.259  -0.922   0.260  1.00  0.00    -0.361 OA
HETATM   22  H   UNL     1       6.811  -1.615  -0.232  1.00  0.00     0.217 HD
ENDBRANCH  17  21
TORSDOF 2
